<?xml version="1.0" encoding="UTF-8"?>

<!-- generated on 2022-01-30 23:17:22 by Eclipse SUMO netconvert Version 1.10.0
<configuration xmlns:xsi="http://www.w3.org/2001/XMLSchema-instance" xsi:noNamespaceSchemaLocation="http://sumo.dlr.de/xsd/netconvertConfiguration.xsd">

    <input>
        <osm-files value="atlanta_i285.osm"/>
    </input>

    <output>
        <output-file value="atlanta_i285.net.xml"/>
    </output>

    <projection>
        <proj.utm value="true"/>
    </projection>

    <processing>
        <geometry.remove value="true"/>
    </processing>

    <ramp_guessing>
        <ramps.guess value="true"/>
    </ramp_guessing>

    <junctions>
        <junctions.join value="true"/>
    </junctions>

    <report>
        <aggregate-warnings value="5"/>
    </report>

</configuration>
-->

<net version="1.9" junctionCornerDetail="5" limitTurnSpeed="5.50" xmlns:xsi="http://www.w3.org/2001/XMLSchema-instance" xsi:noNamespaceSchemaLocation="http://sumo.dlr.de/xsd/net_file.xsd">

    <location netOffset="-731378.05,-3722528.66" convBoundary="0.00,0.00,25205.90,34088.57" origBoundary="-84.502808,33.616142,-84.230320,33.920427" projParameter="+proj=utm +zone=16 +ellps=WGS84 +datum=WGS84 +units=m +no_defs"/>

    <type id="highway.bridleway" priority="1" numLanes="1" speed="2.78" allow="pedestrian" oneway="1" width="2.00"/>
    <type id="highway.bus_guideway" priority="1" numLanes="1" speed="27.78" allow="bus" oneway="1"/>
    <type id="highway.cycleway" priority="1" numLanes="1" speed="8.33" allow="bicycle" oneway="0" width="1.00"/>
    <type id="highway.footway" priority="1" numLanes="1" speed="2.78" allow="pedestrian" oneway="1" width="2.00"/>
    <type id="highway.ford" priority="1" numLanes="1" speed="2.78" allow="army" oneway="0"/>
    <type id="highway.living_street" priority="2" numLanes="1" speed="2.78" disallow="tram rail_urban rail rail_electric rail_fast ship" oneway="0"/>
    <type id="highway.motorway" priority="14" numLanes="2" speed="39.44" allow="private emergency authority army vip passenger hov taxi bus coach delivery truck trailer motorcycle evehicle custom1 custom2" oneway="1"/>
    <type id="highway.motorway_link" priority="9" numLanes="1" speed="22.22" allow="private emergency authority army vip passenger hov taxi bus coach delivery truck trailer motorcycle evehicle custom1 custom2" oneway="1"/>
    <type id="highway.path" priority="1" numLanes="1" speed="2.78" allow="pedestrian bicycle" oneway="0" width="2.00"/>
    <type id="highway.pedestrian" priority="1" numLanes="1" speed="2.78" allow="pedestrian" oneway="1" width="2.00"/>
    <type id="highway.primary" priority="12" numLanes="2" speed="27.78" disallow="tram rail_urban rail rail_electric rail_fast ship" oneway="0"/>
    <type id="highway.primary_link" priority="7" numLanes="1" speed="22.22" disallow="tram rail_urban rail rail_electric rail_fast ship" oneway="0"/>
    <type id="highway.raceway" priority="15" numLanes="2" speed="83.33" allow="vip" oneway="0"/>
    <type id="highway.residential" priority="3" numLanes="1" speed="13.89" disallow="tram rail_urban rail rail_electric rail_fast ship" oneway="0"/>
    <type id="highway.secondary" priority="11" numLanes="1" speed="27.78" disallow="tram rail_urban rail rail_electric rail_fast ship" oneway="0"/>
    <type id="highway.secondary_link" priority="6" numLanes="1" speed="22.22" disallow="tram rail_urban rail rail_electric rail_fast ship" oneway="0"/>
    <type id="highway.service" priority="1" numLanes="1" speed="5.56" allow="pedestrian delivery bicycle" oneway="0"/>
    <type id="highway.stairs" priority="1" numLanes="1" speed="1.39" allow="pedestrian" oneway="1" width="2.00"/>
    <type id="highway.step" priority="1" numLanes="1" speed="1.39" allow="pedestrian" oneway="1" width="2.00"/>
    <type id="highway.steps" priority="1" numLanes="1" speed="1.39" allow="pedestrian" oneway="1" width="2.00"/>
    <type id="highway.tertiary" priority="10" numLanes="1" speed="22.22" disallow="tram rail_urban rail rail_electric rail_fast ship" oneway="0"/>
    <type id="highway.tertiary_link" priority="5" numLanes="1" speed="22.22" disallow="tram rail_urban rail rail_electric rail_fast ship" oneway="0"/>
    <type id="highway.track" priority="1" numLanes="1" speed="5.56" allow="pedestrian motorcycle moped bicycle" oneway="0"/>
    <type id="highway.trunk" priority="13" numLanes="2" speed="27.78" disallow="pedestrian bicycle tram rail_urban rail rail_electric rail_fast ship" oneway="0"/>
    <type id="highway.trunk_link" priority="8" numLanes="1" speed="22.22" disallow="pedestrian bicycle tram rail_urban rail rail_electric rail_fast ship" oneway="0"/>
    <type id="highway.unclassified" priority="4" numLanes="1" speed="13.89" disallow="tram rail_urban rail rail_electric rail_fast ship" oneway="0"/>
    <type id="highway.unsurfaced" priority="1" numLanes="1" speed="8.33" disallow="tram rail_urban rail rail_electric rail_fast ship" oneway="0"/>
    <type id="railway.highspeed" priority="21" numLanes="1" speed="69.44" allow="rail_fast" oneway="1"/>
    <type id="railway.light_rail" priority="19" numLanes="1" speed="27.78" allow="rail_urban" oneway="1"/>
    <type id="railway.preserved" priority="16" numLanes="1" speed="27.78" allow="rail" oneway="1"/>
    <type id="railway.rail" priority="20" numLanes="1" speed="44.44" allow="rail" oneway="1"/>
    <type id="railway.subway" priority="18" numLanes="1" speed="27.78" allow="rail_urban" oneway="1"/>
    <type id="railway.tram" priority="17" numLanes="1" speed="13.89" allow="tram" oneway="1"/>

    <edge id=":1037846073_0" function="internal">
        <lane id=":1037846073_0_0" index="0" allow="private emergency authority army vip passenger hov taxi bus coach delivery truck trailer motorcycle evehicle custom1 custom2" speed="29.06" length="8.20" shape="605.96,15083.93 606.95,15086.16 607.97,15087.54 608.97,15088.92 609.92,15091.16"/>
        <lane id=":1037846073_0_1" index="1" allow="private emergency authority army vip passenger hov taxi bus coach delivery truck trailer motorcycle evehicle custom1 custom2" speed="29.06" length="8.20" shape="605.96,15083.93 606.47,15086.30 606.44,15088.00 606.39,15089.71 606.86,15092.10"/>
        <lane id=":1037846073_0_2" index="2" allow="private emergency authority army vip passenger hov taxi bus coach delivery truck trailer motorcycle evehicle custom1 custom2" speed="29.06" length="8.20" shape="602.92,15084.92 603.42,15087.27 603.39,15088.97 603.34,15090.66 603.80,15093.03"/>
        <lane id=":1037846073_0_3" index="3" allow="private emergency authority army vip passenger hov taxi bus coach delivery truck trailer motorcycle evehicle custom1 custom2" speed="29.06" length="8.20" shape="599.88,15085.91 600.37,15088.25 600.34,15089.93 600.28,15091.61 600.74,15093.96"/>
        <lane id=":1037846073_0_4" index="4" allow="private emergency authority army vip passenger hov taxi bus coach delivery truck trailer motorcycle evehicle custom1 custom2" speed="29.06" length="8.20" shape="596.83,15086.91 597.33,15089.22 597.28,15090.89 597.23,15092.56 597.68,15094.89"/>
    </edge>
    <edge id=":1037846106_0" function="internal">
        <lane id=":1037846106_0_0" index="0" allow="private emergency authority army vip passenger hov taxi bus coach delivery truck trailer motorcycle evehicle custom1 custom2" speed="29.06" length="8.21" shape="529.91,14844.93 530.84,14847.15 531.83,14848.52 532.83,14849.89 533.77,14852.10"/>
        <lane id=":1037846106_0_1" index="1" allow="private emergency authority army vip passenger hov taxi bus coach delivery truck trailer motorcycle evehicle custom1 custom2" speed="29.06" length="8.21" shape="526.85,14845.86 527.78,14848.08 528.77,14849.45 529.77,14850.83 530.71,14853.04"/>
        <lane id=":1037846106_0_2" index="2" allow="private emergency authority army vip passenger hov taxi bus coach delivery truck trailer motorcycle evehicle custom1 custom2" speed="29.06" length="8.21" shape="523.78,14846.79 524.72,14849.01 525.71,14850.39 526.71,14851.76 527.65,14853.98"/>
        <lane id=":1037846106_0_3" index="3" allow="private emergency authority army vip passenger hov taxi bus coach delivery truck trailer motorcycle evehicle custom1 custom2" speed="29.06" length="8.21" shape="520.72,14847.72 521.66,14849.95 522.65,14851.32 523.65,14852.70 524.59,14854.92"/>
    </edge>
    <edge id=":1037846122_0" function="internal">
        <lane id=":1037846122_0_0" index="0" allow="private emergency authority army vip passenger hov taxi bus coach delivery truck trailer motorcycle evehicle custom1 custom2" speed="29.06" length="8.16" shape="759.15,15985.54 758.93,15983.19 758.40,15981.62 757.84,15980.05 757.56,15977.69"/>
        <lane id=":1037846122_0_1" index="1" allow="private emergency authority army vip passenger hov taxi bus coach delivery truck trailer motorcycle evehicle custom1 custom2" speed="29.06" length="8.16" shape="759.15,15985.54 759.44,15983.18 760.00,15981.60 760.54,15980.02 760.76,15977.65"/>
        <lane id=":1037846122_0_2" index="2" allow="private emergency authority army vip passenger hov taxi bus coach delivery truck trailer motorcycle evehicle custom1 custom2" speed="29.06" length="8.16" shape="762.35,15985.59 762.64,15983.20 763.20,15981.60 763.74,15980.01 763.96,15977.62"/>
        <lane id=":1037846122_0_3" index="3" allow="private emergency authority army vip passenger hov taxi bus coach delivery truck trailer motorcycle evehicle custom1 custom2" speed="29.06" length="8.16" shape="765.55,15985.65 765.84,15983.23 766.40,15981.61 766.94,15979.99 767.16,15977.58"/>
    </edge>
    <edge id=":1386245594_0" function="internal">
        <lane id=":1386245594_0_0" index="0" allow="private emergency authority army vip passenger hov taxi bus coach delivery truck trailer motorcycle evehicle custom1 custom2" speed="29.06" length="8.21" shape="4523.43,243.23 4521.23,244.21 4519.87,245.22 4518.51,246.24 4516.31,247.21"/>
        <lane id=":1386245594_0_1" index="1" allow="private emergency authority army vip passenger hov taxi bus coach delivery truck trailer motorcycle evehicle custom1 custom2" speed="29.06" length="8.21" shape="4522.45,240.19 4520.25,241.16 4518.89,242.17 4517.53,243.19 4515.33,244.16"/>
        <lane id=":1386245594_0_2" index="2" allow="private emergency authority army vip passenger hov taxi bus coach delivery truck trailer motorcycle evehicle custom1 custom2" speed="29.06" length="8.21" shape="4521.47,237.14 4519.27,238.11 4517.91,239.13 4516.55,240.14 4514.35,241.11"/>
    </edge>
    <edge id=":1386245813_0" function="internal">
        <lane id=":1386245813_0_0" index="0" allow="private emergency authority army vip passenger hov taxi bus coach delivery truck trailer motorcycle evehicle custom1 custom2" speed="29.06" length="8.18" shape="843.29,16112.74 843.49,16115.16 844.00,16116.78 844.50,16118.40 844.67,16120.81"/>
        <lane id=":1386245813_0_1" index="1" allow="private emergency authority army vip passenger hov taxi bus coach delivery truck trailer motorcycle evehicle custom1 custom2" speed="29.06" length="8.18" shape="840.09,16112.69 840.29,16115.08 840.81,16116.69 841.30,16118.30 841.47,16120.70"/>
        <lane id=":1386245813_0_2" index="2" allow="private emergency authority army vip passenger hov taxi bus coach delivery truck trailer motorcycle evehicle custom1 custom2" speed="29.06" length="8.18" shape="836.89,16112.63 837.09,16115.00 837.61,16116.60 838.11,16118.20 838.27,16120.58"/>
    </edge>
    <edge id=":1386245820_0" function="internal">
        <lane id=":1386245820_0_0" index="0" allow="private emergency authority army vip passenger hov taxi bus coach delivery truck trailer motorcycle evehicle custom1 custom2" speed="29.06" length="8.21" shape="3663.25,30508.74 3661.06,30507.74 3659.40,30507.41 3657.74,30507.07 3655.55,30506.07"/>
        <lane id=":1386245820_0_1" index="1" allow="private emergency authority army vip passenger hov taxi bus coach delivery truck trailer motorcycle evehicle custom1 custom2" speed="29.06" length="8.21" shape="3664.88,30505.98 3662.68,30504.98 3661.02,30504.65 3659.36,30504.31 3657.17,30503.31"/>
    </edge>
    <edge id=":1824485799_0" function="internal">
        <lane id=":1824485799_0_0" index="0" allow="private emergency authority army vip passenger hov taxi bus coach delivery truck trailer motorcycle evehicle custom1 custom2" speed="24.59" length="8.21" shape="14145.04,33534.49 14142.69,33533.83 14140.98,33533.74 14139.28,33533.65 14136.94,33532.97"/>
        <lane id=":1824485799_0_1" index="1" allow="private emergency authority army vip passenger hov taxi bus coach delivery truck trailer motorcycle evehicle custom1 custom2" speed="24.59" length="8.21" shape="14145.04,33534.49 14142.89,33533.37 14141.59,33532.26 14140.30,33531.15 14138.15,33530.00"/>
        <lane id=":1824485799_0_2" index="2" allow="private emergency authority army vip passenger hov taxi bus coach delivery truck trailer motorcycle evehicle custom1 custom2" speed="24.59" length="8.21" shape="14146.21,33531.51 14144.07,33530.40 14142.78,33529.29 14141.49,33528.18 14139.36,33527.04"/>
        <lane id=":1824485799_0_3" index="3" allow="private emergency authority army vip passenger hov taxi bus coach delivery truck trailer motorcycle evehicle custom1 custom2" speed="24.59" length="8.21" shape="14147.38,33528.53 14145.25,33527.42 14143.97,33526.32 14142.69,33525.21 14140.57,33524.08"/>
        <lane id=":1824485799_0_4" index="4" allow="private emergency authority army vip passenger hov taxi bus coach delivery truck trailer motorcycle evehicle custom1 custom2" speed="24.59" length="8.21" shape="14148.56,33525.55 14146.43,33524.45 14145.16,33523.35 14143.89,33522.24 14141.78,33521.11"/>
        <lane id=":1824485799_0_5" index="5" allow="private emergency authority army vip passenger hov taxi bus coach delivery truck trailer motorcycle evehicle custom1 custom2" speed="24.59" length="8.21" shape="14149.73,33522.58 14147.62,33521.48 14146.35,33520.38 14145.09,33519.28 14142.99,33518.15"/>
    </edge>
    <edge id=":1852226252_0" function="internal">
        <lane id=":1852226252_0_0" index="0" allow="private emergency authority army vip passenger hov taxi bus coach delivery truck trailer motorcycle evehicle custom1 custom2" speed="24.59" length="8.81" shape="13400.74,33197.32 13403.18,33197.89 13405.04,33197.53 13406.89,33197.16 13409.33,33197.72"/>
        <lane id=":1852226252_0_1" index="1" allow="private emergency authority army vip passenger hov taxi bus coach delivery truck trailer motorcycle evehicle custom1 custom2" speed="24.59" length="8.81" shape="13399.41,33200.23 13401.86,33200.80 13403.71,33200.44 13405.57,33200.07 13408.02,33200.63"/>
        <lane id=":1852226252_0_2" index="2" allow="private emergency authority army vip passenger hov taxi bus coach delivery truck trailer motorcycle evehicle custom1 custom2" speed="24.59" length="8.81" shape="13398.08,33203.14 13400.53,33203.71 13402.39,33203.35 13404.24,33202.99 13406.70,33203.55"/>
        <lane id=":1852226252_0_3" index="3" allow="private emergency authority army vip passenger hov taxi bus coach delivery truck trailer motorcycle evehicle custom1 custom2" speed="24.59" length="8.81" shape="13396.75,33206.05 13399.20,33206.63 13401.06,33206.27 13402.92,33205.90 13405.38,33206.47"/>
    </edge>
    <edge id=":1927723156_0" function="internal">
        <lane id=":1927723156_0_0" index="0" allow="private emergency authority army vip passenger hov taxi bus coach delivery truck trailer motorcycle evehicle custom1 custom2" speed="29.06" length="8.21" shape="598.10,15159.77 597.19,15157.56 596.21,15156.19 595.22,15154.83 594.28,15152.62"/>
        <lane id=":1927723156_0_1" index="1" allow="private emergency authority army vip passenger hov taxi bus coach delivery truck trailer motorcycle evehicle custom1 custom2" speed="29.06" length="8.21" shape="601.17,15158.87 600.26,15156.65 599.27,15155.27 598.28,15153.90 597.34,15151.68"/>
        <lane id=":1927723156_0_2" index="2" allow="private emergency authority army vip passenger hov taxi bus coach delivery truck trailer motorcycle evehicle custom1 custom2" speed="29.06" length="8.21" shape="604.24,15157.97 603.32,15155.74 602.34,15154.35 601.35,15152.97 600.40,15150.75"/>
        <lane id=":1927723156_0_3" index="3" allow="private emergency authority army vip passenger hov taxi bus coach delivery truck trailer motorcycle evehicle custom1 custom2" speed="29.06" length="8.21" shape="604.24,15157.97 603.80,15155.59 603.87,15153.89 603.93,15152.19 603.46,15149.81"/>
    </edge>
    <edge id=":1927723231_0" function="internal">
        <lane id=":1927723231_0_0" index="0" allow="private emergency authority army vip passenger hov taxi bus coach delivery truck trailer motorcycle evehicle custom1 custom2" speed="29.06" length="8.21" shape="23134.41,21753.77 23134.36,21756.17 23134.70,21757.83 23135.04,21759.49 23134.99,21761.90"/>
        <lane id=":1927723231_0_1" index="1" allow="private emergency authority army vip passenger hov taxi bus coach delivery truck trailer motorcycle evehicle custom1 custom2" speed="29.06" length="8.21" shape="23134.41,21753.77 23133.86,21756.11 23133.11,21757.63 23132.36,21759.15 23131.82,21761.50"/>
        <lane id=":1927723231_0_2" index="2" allow="private emergency authority army vip passenger hov taxi bus coach delivery truck trailer motorcycle evehicle custom1 custom2" speed="29.06" length="8.21" shape="23131.23,21753.36 23130.68,21755.71 23129.94,21757.23 23129.19,21758.75 23128.64,21761.10"/>
        <lane id=":1927723231_0_3" index="3" allow="private emergency authority army vip passenger hov taxi bus coach delivery truck trailer motorcycle evehicle custom1 custom2" speed="29.06" length="8.21" shape="23128.06,21752.96 23127.51,21755.31 23126.76,21756.83 23126.02,21758.35 23125.47,21760.70"/>
        <lane id=":1927723231_0_4" index="4" allow="private emergency authority army vip passenger hov taxi bus coach delivery truck trailer motorcycle evehicle custom1 custom2" speed="29.06" length="8.21" shape="23124.88,21752.56 23124.34,21754.91 23123.59,21756.43 23122.84,21757.95 23122.29,21760.29"/>
    </edge>
    <edge id=":1927723815_0" function="internal">
        <lane id=":1927723815_0_0" index="0" allow="private emergency authority army vip passenger hov taxi bus coach delivery truck trailer motorcycle evehicle custom1 custom2" speed="29.06" length="8.20" shape="1196.53,25533.43 1197.46,25535.63 1198.45,25536.99 1199.45,25538.35 1200.40,25540.54"/>
        <lane id=":1927723815_0_1" index="1" allow="private emergency authority army vip passenger hov taxi bus coach delivery truck trailer motorcycle evehicle custom1 custom2" speed="29.06" length="8.20" shape="1196.53,25533.43 1196.98,25535.78 1196.92,25537.47 1196.87,25539.15 1197.34,25541.50"/>
        <lane id=":1927723815_0_2" index="2" allow="private emergency authority army vip passenger hov taxi bus coach delivery truck trailer motorcycle evehicle custom1 custom2" speed="29.06" length="8.20" shape="1193.47,25534.35 1193.92,25536.72 1193.87,25538.41 1193.81,25540.10 1194.29,25542.46"/>
        <lane id=":1927723815_0_3" index="3" allow="private emergency authority army vip passenger hov taxi bus coach delivery truck trailer motorcycle evehicle custom1 custom2" speed="29.06" length="8.20" shape="1190.41,25535.28 1190.86,25537.65 1190.81,25539.35 1190.76,25541.05 1191.24,25543.41"/>
        <lane id=":1927723815_0_4" index="4" allow="private emergency authority army vip passenger hov taxi bus coach delivery truck trailer motorcycle evehicle custom1 custom2" speed="29.06" length="8.20" shape="1187.34,25536.20 1187.80,25538.59 1187.75,25540.29 1187.70,25541.99 1188.18,25544.37"/>
    </edge>
    <edge id=":1927723832_0" function="internal">
        <lane id=":1927723832_0_0" index="0" allow="private emergency authority army vip passenger hov taxi bus coach delivery truck trailer motorcycle evehicle custom1 custom2" speed="29.06" length="8.16" shape="1556.51,26794.33 1555.49,26792.10 1554.46,26790.72 1553.45,26789.32 1552.52,26787.07"/>
        <lane id=":1927723832_0_1" index="1" allow="private emergency authority army vip passenger hov taxi bus coach delivery truck trailer motorcycle evehicle custom1 custom2" speed="29.06" length="8.16" shape="1556.51,26794.33 1555.97,26791.96 1555.99,26790.26 1556.04,26788.54 1555.58,26786.15"/>
        <lane id=":1927723832_0_2" index="2" allow="private emergency authority army vip passenger hov taxi bus coach delivery truck trailer motorcycle evehicle custom1 custom2" speed="29.06" length="8.16" shape="1559.54,26793.31 1559.02,26790.97 1559.04,26789.29 1559.10,26787.60 1558.65,26785.23"/>
        <lane id=":1927723832_0_3" index="3" allow="private emergency authority army vip passenger hov taxi bus coach delivery truck trailer motorcycle evehicle custom1 custom2" speed="29.06" length="8.16" shape="1562.57,26792.28 1562.06,26789.98 1562.09,26788.32 1562.15,26786.65 1561.71,26784.32"/>
        <lane id=":1927723832_0_4" index="4" allow="private emergency authority army vip passenger hov taxi bus coach delivery truck trailer motorcycle evehicle custom1 custom2" speed="29.06" length="8.16" shape="1565.60,26791.26 1565.10,26788.98 1565.14,26787.34 1565.21,26785.70 1564.78,26783.40"/>
    </edge>
    <edge id=":1927724285_0" function="internal">
        <lane id=":1927724285_0_0" index="0" allow="private emergency authority army vip passenger hov taxi bus coach delivery truck trailer motorcycle evehicle custom1 custom2" speed="24.59" length="8.21" shape="8901.55,33233.60 8903.67,33232.45 8904.95,33231.33 8906.22,33230.21 8908.34,33229.07"/>
        <lane id=":1927724285_0_1" index="1" allow="private emergency authority army vip passenger hov taxi bus coach delivery truck trailer motorcycle evehicle custom1 custom2" speed="24.59" length="8.21" shape="8901.55,33233.60 8903.86,33232.92 8905.56,33232.81 8907.25,33232.71 8909.56,33232.03"/>
        <lane id=":1927724285_0_2" index="2" allow="private emergency authority army vip passenger hov taxi bus coach delivery truck trailer motorcycle evehicle custom1 custom2" speed="24.59" length="8.21" shape="8902.77,33236.56 8905.09,33235.87 8906.78,33235.77 8908.47,33235.67 8910.78,33234.98"/>
        <lane id=":1927724285_0_3" index="3" allow="private emergency authority army vip passenger hov taxi bus coach delivery truck trailer motorcycle evehicle custom1 custom2" speed="24.59" length="8.21" shape="8903.99,33239.52 8906.31,33238.83 8908.00,33238.73 8909.69,33238.63 8912.00,33237.94"/>
        <lane id=":1927724285_0_4" index="4" allow="private emergency authority army vip passenger hov taxi bus coach delivery truck trailer motorcycle evehicle custom1 custom2" speed="24.59" length="8.21" shape="8905.22,33242.47 8907.53,33241.79 8909.22,33241.69 8910.91,33241.58 8913.22,33240.90"/>
        <lane id=":1927724285_0_5" index="5" allow="private emergency authority army vip passenger hov taxi bus coach delivery truck trailer motorcycle evehicle custom1 custom2" speed="24.59" length="8.21" shape="8906.44,33245.43 8908.75,33244.75 8910.44,33244.64 8912.13,33244.54 8914.44,33243.86"/>
    </edge>
    <edge id=":2075739104_0" function="internal">
        <lane id=":2075739104_0_0" index="0" allow="private emergency authority army vip passenger hov taxi bus coach delivery truck trailer motorcycle evehicle custom1 custom2" speed="24.59" length="8.16" shape="12622.01,32809.19 12624.42,32809.51 12626.13,32809.36 12627.83,32809.23 12630.22,32809.60"/>
        <lane id=":2075739104_0_1" index="1" allow="private emergency authority army vip passenger hov taxi bus coach delivery truck trailer motorcycle evehicle custom1 custom2" speed="24.59" length="8.16" shape="12621.27,32812.31 12623.66,32812.62 12625.35,32812.47 12627.03,32812.33 12629.41,32812.70"/>
        <lane id=":2075739104_0_2" index="2" allow="private emergency authority army vip passenger hov taxi bus coach delivery truck trailer motorcycle evehicle custom1 custom2" speed="24.59" length="8.16" shape="12620.53,32815.42 12622.90,32815.73 12624.57,32815.57 12626.24,32815.43 12628.59,32815.79"/>
        <lane id=":2075739104_0_3" index="3" allow="private emergency authority army vip passenger hov taxi bus coach delivery truck trailer motorcycle evehicle custom1 custom2" speed="24.59" length="8.16" shape="12619.79,32818.53 12622.13,32818.84 12623.79,32818.68 12625.45,32818.53 12627.78,32818.89"/>
    </edge>
    <edge id=":2075739127_0" function="internal">
        <lane id=":2075739127_0_0" index="0" allow="private emergency authority army vip passenger hov taxi bus coach delivery truck trailer motorcycle evehicle custom1 custom2" speed="24.59" length="8.66" shape="12898.83,32914.18 12901.29,32914.90 12903.20,32914.67 12905.09,32914.45 12907.52,32915.23"/>
        <lane id=":2075739127_0_1" index="1" allow="private emergency authority army vip passenger hov taxi bus coach delivery truck trailer motorcycle evehicle custom1 custom2" speed="24.59" length="8.66" shape="12898.83,32914.18 12905.96,32918.03"/>
        <lane id=":2075739127_0_2" index="2" allow="private emergency authority army vip passenger hov taxi bus coach delivery truck trailer motorcycle evehicle custom1 custom2" speed="24.59" length="8.66" shape="12898.83,32914.18 12900.79,32915.77 12901.64,32917.46 12902.47,32919.17 12904.40,32920.82"/>
        <lane id=":2075739127_0_3" index="3" allow="private emergency authority army vip passenger hov taxi bus coach delivery truck trailer motorcycle evehicle custom1 custom2" speed="24.59" length="8.66" shape="12897.35,32917.02 12899.29,32918.59 12900.12,32920.28 12900.94,32921.98 12902.84,32923.61"/>
        <lane id=":2075739127_0_4" index="4" allow="private emergency authority army vip passenger hov taxi bus coach delivery truck trailer motorcycle evehicle custom1 custom2" speed="24.59" length="8.66" shape="12895.87,32919.85 12897.78,32921.42 12898.60,32923.09 12899.40,32924.79 12901.28,32926.41"/>
        <lane id=":2075739127_0_5" index="5" allow="private emergency authority army vip passenger hov taxi bus coach delivery truck trailer motorcycle evehicle custom1 custom2" speed="24.59" length="8.66" shape="12894.39,32922.69 12896.28,32924.24 12897.08,32925.91 12897.86,32927.60 12899.72,32929.20"/>
    </edge>
    <edge id=":327603894_0" function="internal">
        <lane id=":327603894_0_0" index="0" allow="private emergency authority army vip passenger hov taxi bus coach delivery truck trailer motorcycle evehicle custom1 custom2" speed="29.06" length="8.08" shape="22964.62,22823.16 22964.69,22820.73 22964.38,22819.04 22964.10,22817.36 22964.28,22814.94"/>
        <lane id=":327603894_0_1" index="1" allow="private emergency authority army vip passenger hov taxi bus coach delivery truck trailer motorcycle evehicle custom1 custom2" speed="29.06" length="8.08" shape="22967.79,22823.59 22967.86,22821.19 22967.54,22819.53 22967.26,22817.88 22967.43,22815.50"/>
        <lane id=":327603894_0_2" index="2" allow="private emergency authority army vip passenger hov taxi bus coach delivery truck trailer motorcycle evehicle custom1 custom2" speed="29.06" length="8.08" shape="22970.96,22824.01 22971.03,22821.65 22970.71,22820.02 22970.42,22818.40 22970.58,22816.06"/>
        <lane id=":327603894_0_3" index="3" allow="private emergency authority army vip passenger hov taxi bus coach delivery truck trailer motorcycle evehicle custom1 custom2" speed="29.06" length="8.08" shape="22974.13,22824.43 22974.19,22822.12 22973.87,22820.52 22973.58,22818.92 22973.73,22816.62"/>
    </edge>
    <edge id=":384331852_0" function="internal">
        <lane id=":384331852_0_0" index="0" allow="private emergency authority army vip passenger hov taxi bus coach delivery truck trailer motorcycle evehicle custom1 custom2" speed="29.06" length="8.21" shape="23087.02,22150.12 23087.18,22152.51 23087.68,22154.12 23088.19,22155.73 23088.38,22158.12"/>
        <lane id=":384331852_0_1" index="1" allow="private emergency authority army vip passenger hov taxi bus coach delivery truck trailer motorcycle evehicle custom1 custom2" speed="29.06" length="8.21" shape="23083.82,22150.01 23083.99,22152.41 23084.48,22154.02 23084.99,22155.64 23085.18,22158.04"/>
        <lane id=":384331852_0_2" index="2" allow="private emergency authority army vip passenger hov taxi bus coach delivery truck trailer motorcycle evehicle custom1 custom2" speed="29.06" length="8.21" shape="23080.62,22149.90 23080.79,22152.31 23081.29,22153.93 23081.79,22155.55 23081.98,22157.96"/>
        <lane id=":384331852_0_3" index="3" allow="private emergency authority army vip passenger hov taxi bus coach delivery truck trailer motorcycle evehicle custom1 custom2" speed="29.06" length="8.21" shape="23077.42,22149.79 23077.59,22152.21 23078.09,22153.83 23078.59,22155.46 23078.78,22157.88"/>
    </edge>
    <edge id=":384408088_0" function="internal">
        <lane id=":384408088_0_0" index="0" allow="private emergency authority army vip passenger hov taxi bus coach delivery truck trailer motorcycle evehicle custom1 custom2" speed="29.06" length="8.20" shape="23627.30,10502.25 23625.82,10500.34 23624.51,10499.25 23623.20,10498.17 23621.74,10496.24"/>
        <lane id=":384408088_0_1" index="1" allow="private emergency authority army vip passenger hov taxi bus coach delivery truck trailer motorcycle evehicle custom1 custom2" speed="29.06" length="8.20" shape="23630.02,10500.57 23628.55,10498.66 23627.24,10497.58 23625.93,10496.50 23624.47,10494.58"/>
        <lane id=":384408088_0_2" index="2" allow="private emergency authority army vip passenger hov taxi bus coach delivery truck trailer motorcycle evehicle custom1 custom2" speed="29.06" length="8.20" shape="23632.74,10498.88 23631.27,10496.98 23629.97,10495.91 23628.66,10494.83 23627.21,10492.92"/>