<configuration>
    <input>
        <net-file value="highway-1.net.xml"/>
        <route-files value="highway-1.rou.xml"/>
    </input>
    <time>
        <begin value="0"/>
        <end value="10000"/>
    </time>
</configuration>