<?xml version="1.0" encoding="UTF-8"?>

<!-- generated on 2021-08-25 12:49:43 by Eclipse SUMO netconvert Version 1.10.0
<configuration xmlns:xsi="http://www.w3.org/2001/XMLSchema-instance" xsi:noNamespaceSchemaLocation="http://sumo.dlr.de/xsd/netconvertConfiguration.xsd">

    <input>
        <osm-files value="highway_ann_arbor_v2.osm"/>
    </input>

    <output>
        <output-file value="osm-v2.net.xml"/>
    </output>

    <projection>
        <proj.utm value="true"/>
    </projection>

    <junctions>
        <junctions.join value="true"/>
    </junctions>

    <report>
        <aggregate-warnings value="5"/>
    </report>

</configuration>
-->

<net version="1.9" junctionCornerDetail="5" limitTurnSpeed="5.50" xmlns:xsi="http://www.w3.org/2001/XMLSchema-instance" xsi:noNamespaceSchemaLocation="http://sumo.dlr.de/xsd/net_file.xsd">

    <location netOffset="-268213.02,-4678258.67" convBoundary="0.00,0.00,11132.59,11067.24" origBoundary="-83.811410,42.225088,-83.675806,42.324180" projParameter="+proj=utm +zone=17 +ellps=WGS84 +datum=WGS84 +units=m +no_defs"/>

    <type id="highway.bridleway" priority="1" numLanes="1" speed="2.78" allow="pedestrian" oneway="1" width="2.00"/>
    <type id="highway.bus_guideway" priority="1" numLanes="1" speed="27.78" allow="bus" oneway="1"/>
    <type id="highway.cycleway" priority="1" numLanes="1" speed="8.33" allow="bicycle" oneway="0" width="1.00"/>
    <type id="highway.footway" priority="1" numLanes="1" speed="2.78" allow="pedestrian" oneway="1" width="2.00"/>
    <type id="highway.ford" priority="1" numLanes="1" speed="2.78" allow="army" oneway="0"/>
    <type id="highway.living_street" priority="2" numLanes="1" speed="2.78" disallow="tram rail_urban rail rail_electric rail_fast ship" oneway="0"/>
    <type id="highway.motorway" priority="14" numLanes="2" speed="39.44" allow="private emergency authority army vip passenger hov taxi bus coach delivery truck trailer motorcycle evehicle custom1 custom2" oneway="1"/>
    <type id="highway.motorway_link" priority="9" numLanes="1" speed="22.22" allow="private emergency authority army vip passenger hov taxi bus coach delivery truck trailer motorcycle evehicle custom1 custom2" oneway="1"/>
    <type id="highway.path" priority="1" numLanes="1" speed="2.78" allow="pedestrian bicycle" oneway="0" width="2.00"/>
    <type id="highway.pedestrian" priority="1" numLanes="1" speed="2.78" allow="pedestrian" oneway="1" width="2.00"/>
    <type id="highway.primary" priority="12" numLanes="2" speed="27.78" disallow="tram rail_urban rail rail_electric rail_fast ship" oneway="0"/>
    <type id="highway.primary_link" priority="7" numLanes="1" speed="22.22" disallow="tram rail_urban rail rail_electric rail_fast ship" oneway="0"/>
    <type id="highway.raceway" priority="15" numLanes="2" speed="83.33" allow="vip" oneway="0"/>
    <type id="highway.residential" priority="3" numLanes="1" speed="13.89" disallow="tram rail_urban rail rail_electric rail_fast ship" oneway="0"/>
    <type id="highway.secondary" priority="11" numLanes="1" speed="27.78" disallow="tram rail_urban rail rail_electric rail_fast ship" oneway="0"/>
    <type id="highway.secondary_link" priority="6" numLanes="1" speed="22.22" disallow="tram rail_urban rail rail_electric rail_fast ship" oneway="0"/>
    <type id="highway.service" priority="1" numLanes="1" speed="5.56" allow="pedestrian delivery bicycle" oneway="0"/>
    <type id="highway.stairs" priority="1" numLanes="1" speed="1.39" allow="pedestrian" oneway="1" width="2.00"/>
    <type id="highway.step" priority="1" numLanes="1" speed="1.39" allow="pedestrian" oneway="1" width="2.00"/>
    <type id="highway.steps" priority="1" numLanes="1" speed="1.39" allow="pedestrian" oneway="1" width="2.00"/>
    <type id="highway.tertiary" priority="10" numLanes="1" speed="22.22" disallow="tram rail_urban rail rail_electric rail_fast ship" oneway="0"/>
    <type id="highway.tertiary_link" priority="5" numLanes="1" speed="22.22" disallow="tram rail_urban rail rail_electric rail_fast ship" oneway="0"/>
    <type id="highway.track" priority="1" numLanes="1" speed="5.56" allow="pedestrian motorcycle moped bicycle" oneway="0"/>
    <type id="highway.trunk" priority="13" numLanes="2" speed="27.78" disallow="pedestrian bicycle tram rail_urban rail rail_electric rail_fast ship" oneway="0"/>
    <type id="highway.trunk_link" priority="8" numLanes="1" speed="22.22" disallow="pedestrian bicycle tram rail_urban rail rail_electric rail_fast ship" oneway="0"/>
    <type id="highway.unclassified" priority="4" numLanes="1" speed="13.89" disallow="tram rail_urban rail rail_electric rail_fast ship" oneway="0"/>
    <type id="highway.unsurfaced" priority="1" numLanes="1" speed="8.33" disallow="tram rail_urban rail rail_electric rail_fast ship" oneway="0"/>
    <type id="railway.highspeed" priority="21" numLanes="1" speed="69.44" allow="rail_fast" oneway="1"/>
    <type id="railway.light_rail" priority="19" numLanes="1" speed="27.78" allow="rail_urban" oneway="1"/>
    <type id="railway.preserved" priority="16" numLanes="1" speed="27.78" allow="rail" oneway="1"/>
    <type id="railway.rail" priority="20" numLanes="1" speed="44.44" allow="rail" oneway="1"/>
    <type id="railway.subway" priority="18" numLanes="1" speed="27.78" allow="rail_urban" oneway="1"/>
    <type id="railway.tram" priority="17" numLanes="1" speed="13.89" allow="tram" oneway="1"/>

    <edge id=":-103743_0" function="internal">
        <lane id=":-103743_0_0" index="0" allow="private emergency authority army vip passenger hov taxi bus coach delivery truck trailer motorcycle evehicle custom1 custom2" speed="7.07" length="2.05" shape="-1.49,7426.18 -1.56,7425.27 -1.51,7424.64 -1.29,7424.05 -0.85,7423.26"/>
        <lane id=":-103743_0_1" index="1" allow="private emergency authority army vip passenger hov taxi bus coach delivery truck trailer motorcycle evehicle custom1 custom2" speed="4.43" length="2.05" shape="1.70,7425.85 1.67,7425.55 1.69,7425.34 1.76,7425.14 1.91,7424.88"/>
    </edge>
    <edge id=":-103753_0" function="internal">
        <lane id=":-103753_0_0" index="0" allow="private emergency authority army vip passenger hov taxi bus coach delivery truck trailer motorcycle evehicle custom1 custom2" speed="6.32" length="4.93" shape="1.85,7436.21 0.77,7435.54 -0.04,7434.67 -0.58,7433.62 -0.86,7432.37"/>
        <lane id=":-103753_0_1" index="1" allow="private emergency authority army vip passenger hov taxi bus coach delivery truck trailer motorcycle evehicle custom1 custom2" speed="4.03" length="1.64" shape="3.23,7433.33 2.87,7433.10 2.60,7432.81 2.42,7432.46 2.33,7432.05"/>
    </edge>
    <edge id=":251146636_0" function="internal">
        <lane id=":251146636_0_0" index="0" allow="private emergency authority army vip passenger hov taxi bus coach delivery truck trailer motorcycle evehicle custom1 custom2" speed="4.08" length="1.49" shape="10182.72,6.32 10182.44,6.58 10182.24,6.88 10182.12,7.22 10182.08,7.60"/>
        <lane id=":251146636_0_1" index="1" allow="private emergency authority army vip passenger hov taxi bus coach delivery truck trailer motorcycle evehicle custom1 custom2" speed="6.42" length="4.46" shape="10180.80,3.76 10179.96,4.54 10179.36,5.45 10179.00,6.47 10178.88,7.61"/>
    </edge>
    <edge id=":251146637_0" function="internal">
        <lane id=":251146637_0_0" index="0" allow="private emergency authority army vip passenger hov taxi bus coach delivery truck trailer motorcycle evehicle custom1 custom2" speed="31.29" length="8.19" shape="10182.16,76.86 10182.41,79.24 10182.97,80.83 10183.54,82.42 10183.83,84.80"/>
        <lane id=":251146637_0_1" index="1" allow="private emergency authority army vip passenger hov taxi bus coach delivery truck trailer motorcycle evehicle custom1 custom2" speed="31.29" length="8.19" shape="10182.16,76.86 10181.91,79.25 10181.37,80.85 10180.84,82.46 10180.63,84.85"/>
        <lane id=":251146637_0_2" index="2" allow="private emergency authority army vip passenger hov taxi bus coach delivery truck trailer motorcycle evehicle custom1 custom2" speed="31.29" length="8.19" shape="10178.96,76.86 10178.71,79.27 10178.17,80.88 10177.64,82.49 10177.43,84.90"/>
    </edge>
    <edge id=":62504297_0" function="internal">
        <lane id=":62504297_0_0" index="0" allow="private emergency authority army vip passenger hov taxi bus coach delivery truck trailer motorcycle evehicle custom1 custom2" speed="3.97" length="1.91" shape="10212.81,21.48 10213.23,21.21 10213.52,20.86 10213.68,20.44 10213.71,19.94"/>
        <lane id=":62504297_0_1" index="1" allow="private emergency authority army vip passenger hov taxi bus coach delivery truck trailer motorcycle evehicle custom1 custom2" speed="6.20" length="5.73" shape="10214.20,24.37 10215.46,23.55 10216.33,22.51 10216.81,21.23 10216.90,19.73"/>
    </edge>
    <edge id=":62506941_0" function="internal">
        <lane id=":62506941_0_0" index="0" allow="private emergency authority army vip passenger hov taxi bus coach delivery truck trailer motorcycle evehicle custom1 custom2" speed="31.29" length="0.32" shape="6111.57,10773.97 6111.45,10773.89 6111.37,10773.84 6111.30,10773.78 6111.19,10773.69"/>
        <lane id=":62506941_0_1" index="1" allow="private emergency authority army vip passenger hov taxi bus coach delivery truck trailer motorcycle evehicle custom1 custom2" speed="31.29" length="0.32" shape="6113.33,10771.30 6113.29,10771.27 6113.26,10771.25 6113.24,10771.23 6113.20,10771.20"/>
    </edge>
    <edge id=":62587896_0" function="internal">
        <lane id=":62587896_0_0" index="0" allow="private emergency authority army vip passenger hov taxi bus coach delivery truck trailer motorcycle evehicle custom1 custom2" speed="31.29" length="0.26" shape="10078.74,10879.30 10078.43,10879.53"/>
        <lane id=":62587896_0_1" index="1" allow="private emergency authority army vip passenger hov taxi bus coach delivery truck trailer motorcycle evehicle custom1 custom2" speed="31.29" length="0.26" shape="10076.76,10876.79 10076.66,10876.86"/>
    </edge>
    <edge id=":62587899_0" function="internal">
        <lane id=":62587899_0_0" index="0" allow="private emergency authority army vip passenger hov taxi bus coach delivery truck trailer motorcycle evehicle custom1 custom2" speed="31.29" length="7.49" shape="10102.33,10858.19 10100.90,10859.94 10100.17,10861.37 10099.39,10862.73 10097.81,10864.31"/>
        <lane id=":62587899_0_1" index="1" allow="private emergency authority army vip passenger hov taxi bus coach delivery truck trailer motorcycle evehicle custom1 custom2" speed="31.29" length="7.49" shape="10100.08,10855.91 10098.73,10857.59 10098.05,10858.97 10097.33,10860.29 10095.83,10861.79"/>
    </edge>
    <edge id=":67884244_0" function="internal">
        <lane id=":67884244_0_0" index="0" allow="private emergency authority army vip passenger hov taxi bus coach delivery truck trailer motorcycle evehicle custom1 custom2" speed="31.29" length="0.38" shape="6056.05,10726.04 6055.93,10725.92 6055.85,10725.84 6055.77,10725.75 6055.66,10725.62"/>
        <lane id=":67884244_0_1" index="1" allow="private emergency authority army vip passenger hov taxi bus coach delivery truck trailer motorcycle evehicle custom1 custom2" speed="31.29" length="0.38" shape="6058.26,10723.72 6058.21,10723.68 6058.19,10723.65 6058.16,10723.62 6058.12,10723.58"/>
    </edge>

    <edge id="-102291" from="62587899" to="62587896" priority="14" type="highway.motorway" spreadType="center">
        <lane id="-102291_0" index="0" allow="private emergency authority army vip passenger hov taxi bus coach delivery truck trailer motorcycle evehicle custom1 custom2" speed="31.29" length="24.26" shape="10097.81,10864.31 10078.74,10879.30"/>
        <lane id="-102291_1" index="1" allow="private emergency authority army vip passenger hov taxi bus coach delivery truck trailer motorcycle evehicle custom1 custom2" speed="31.29" length="24.26" shape="10095.83,10861.79 10076.76,10876.79"/>
        <param key="ref" value="US 23;M 14"/>
    </edge>
    <edge id="-102366" from="-103753" to="-103743" priority="14" type="highway.motorway" spreadType="center">
        <lane id="-102366_0" index="0" allow="private emergency authority army vip passenger hov taxi bus coach delivery truck trailer motorcycle evehicle custom1 custom2" speed="31.29" length="6.23" shape="-0.86,7432.37 -1.49,7426.18"/>
        <lane id="-102366_1" index="1" allow="private emergency authority army vip passenger hov taxi bus coach delivery truck trailer motorcycle evehicle custom1 custom2" speed="31.29" length="6.23" shape="2.33,7432.05 1.70,7425.85"/>
        <param key="ref" value="M 14"/>
    </edge>
    <edge id="124433726" from="-103743" to="62504297" priority="14" type="highway.motorway" spreadType="center" shape="0.00,7424.97 3.32,7419.31 8.72,7416.37 55.81,7401.74 196.27,7371.54 227.75,7364.97 313.62,7342.10 409.94,7322.32 657.89,7269.49 772.83,7242.93 867.84,7218.30 943.97,7197.30 1005.07,7179.66 1343.11,7079.67 1641.02,6994.30 1753.84,6961.25 1840.71,6936.06 1886.05,6920.66 1918.77,6906.00 1943.67,6892.33 1980.23,6869.57 2006.60,6850.58 2040.24,6823.16 2072.48,6791.61 2096.85,6763.87 2122.18,6730.95 2139.05,6705.73 2154.98,6677.97 2172.31,6640.77 2188.86,6609.15 2207.25,6553.17 2214.32,6516.72 2218.97,6489.69 2219.97,6459.01 2219.57,6419.18 2218.77,6311.48 2217.51,6250.27 2214.76,6188.78 2205.18,6055.14 2190.78,5884.97 2186.23,5826.64 2180.95,5758.67 2176.35,5698.57 2169.68,5613.52 2165.13,5562.03 2160.97,5514.94 2150.68,5398.71 2144.12,5308.99 2125.23,5082.38 2120.31,5018.07 2112.62,4929.28 2105.70,4836.24 2103.39,4785.84 2103.69,4744.59 2104.86,4704.64 2108.22,4658.40 2118.60,4582.13 2124.78,4546.25 2139.37,4477.29 2156.51,4418.26 2184.96,4338.73 2199.30,4302.58 2225.21,4248.82 2241.28,4217.72 2267.69,4171.62 2286.18,4141.11 2309.85,4104.98 2330.41,4076.97 2393.11,3999.33 2492.55,3891.14 2552.95,3826.36 2559.49,3819.14 2640.89,3730.00 2679.05,3689.62 2699.71,3667.49 2860.71,3491.50 2892.38,3457.11 3168.44,3157.21 3284.16,3030.67 3513.41,2781.26 3627.68,2658.05 3775.17,2497.07 3816.91,2450.99 4005.55,2248.15 4013.84,2238.99 4039.60,2210.59 4085.70,2159.74 4134.06,2107.45 4166.11,2071.94 4210.51,2024.86 4229.81,2003.56 4379.21,1842.09 4394.13,1825.93 4456.53,1763.22 4466.74,1754.33 4493.82,1731.00 4528.18,1702.77 4554.37,1682.58 4593.17,1656.20 4639.53,1626.35 4676.08,1604.50 4733.98,1573.50 4811.51,1539.32 4846.82,1525.06 4883.34,1512.65 4901.43,1507.51 4935.55,1497.29 4994.08,1482.48 5035.01,1474.15 5058.51,1469.84 5097.43,1464.07 5159.70,1458.02 5204.18,1456.28 5278.50,1455.55 5302.05,1455.68 5445.00,1455.22 5520.67,1454.99 5748.91,1454.96 5804.37,1454.95 6367.46,1454.93 6497.66,1454.90 6547.12,1455.25 6929.81,1454.77 7323.42,1455.83 7383.89,1456.10 7516.65,1455.80 7608.82,1455.42 7660.30,1456.00 7691.29,1456.34 7772.60,1454.64 7803.83,1452.42 7848.01,1449.24 7885.60,1444.37 7906.33,1441.60 7952.65,1433.23 7955.84,1432.46 8017.10,1418.28 8043.47,1411.11 8061.73,1406.08 8115.08,1387.71 8144.17,1377.67 8171.89,1365.74 8200.19,1352.94 8230.26,1338.19 8268.02,1319.04 8346.87,1273.73 8375.33,1254.38 8413.04,1229.50 8668.25,1056.66 8697.03,1036.96 8926.08,880.08 8978.49,844.38 9028.69,810.18 9285.03,635.57 9373.68,575.17 9488.00,497.31 9569.32,442.02 9689.70,357.48 9763.28,310.24 9834.44,261.79 9931.55,195.60 9992.02,154.36 10058.29,110.31 10097.02,84.77 10120.00,70.67 10167.84,44.93 10215.44,21.99">
        <lane id="124433726_0" index="0" allow="private emergency authority army vip passenger hov taxi bus coach delivery truck trailer motorcycle evehicle custom1 custom2" speed="31.29" length="14383.37" shape="-0.85,7423.26 2.17,7418.11 8.09,7414.89 55.40,7400.19 195.94,7369.98 227.38,7363.41 313.26,7340.54 409.61,7320.75 657.54,7267.92 772.45,7241.38 867.43,7216.76 943.53,7195.76 1004.62,7178.12 1342.66,7078.13 1640.57,6992.76 1753.40,6959.71 1840.23,6934.53 1885.47,6919.17 1918.06,6904.56 1942.86,6890.95 1979.34,6868.24 2005.63,6849.31 2039.17,6821.96 2071.32,6790.51 2095.61,6762.86 2120.88,6730.02 2137.69,6704.89 2153.56,6677.24 2170.88,6640.06 2187.38,6608.53 2205.70,6552.77 2212.75,6516.43 2217.37,6489.52 2218.37,6458.99 2217.97,6419.19 2217.17,6311.51 2215.91,6250.33 2213.16,6188.87 2203.59,6055.26 2189.19,5885.10 2184.64,5826.77 2179.36,5758.80 2174.75,5698.69 2168.09,5613.66 2163.53,5562.17 2159.37,5515.08 2149.09,5398.84 2142.52,5309.11 2123.63,5082.51 2118.72,5018.20 2111.03,4929.41 2104.10,4836.33 2101.79,4785.87 2102.09,4744.56 2103.26,4704.56 2106.63,4658.23 2117.02,4581.89 2123.21,4545.95 2137.82,4476.90 2154.99,4417.77 2183.46,4338.17 2197.84,4301.94 2223.78,4248.11 2239.88,4216.96 2266.31,4170.80 2284.82,4140.26 2308.54,4104.07 2329.14,4075.99 2391.90,3998.28 2491.38,3890.05 2551.77,3825.28 2558.30,3818.06 2639.72,3728.91 2677.88,3688.53 2698.54,3666.41 2859.53,3490.41 2891.20,3456.03 3167.26,3156.12 3282.99,3029.59 3512.24,2780.17 3626.50,2656.96 3773.99,2496.00 3815.73,2449.91 4004.37,2247.07 4012.66,2237.92 4038.42,2209.51 4084.52,2158.66 4132.87,2106.37 4164.93,2070.85 4209.33,2023.77 4228.63,2002.47 4378.04,1841.00 4392.98,1824.83 4455.44,1762.05 4465.69,1753.12 4492.79,1729.78 4527.18,1701.51 4553.43,1681.28 4592.28,1654.86 4638.69,1624.99 4675.29,1603.10 4733.28,1572.06 4810.89,1537.84 4846.26,1523.56 4882.87,1511.12 4900.98,1505.97 4935.12,1495.75 4993.72,1480.92 5034.71,1472.58 5058.25,1468.26 5097.24,1462.48 5159.59,1456.43 5204.14,1454.68 5278.50,1453.95 5302.05,1454.08 5445.00,1453.62 5520.67,1453.39 5748.91,1453.36 5804.37,1453.35 6367.46,1453.33 6497.66,1453.30 6547.13,1453.65 6929.81,1453.17 7323.43,1454.23 7383.89,1454.50 7516.65,1454.20 7608.83,1453.82 7660.32,1454.40 7691.28,1454.74 7772.52,1453.04 7803.72,1450.83 7847.85,1447.64 7885.39,1442.78 7906.08,1440.02 7952.32,1431.66 7955.48,1430.90 8016.71,1416.73 8043.04,1409.56 8061.25,1404.55 8114.56,1386.20 8143.59,1376.17 8171.24,1364.27 8199.50,1351.49 8229.55,1336.76 8267.26,1317.63 8346.02,1272.38 8374.44,1253.05 8412.15,1228.17 8667.35,1055.34 8696.13,1035.64 8925.17,878.76 8977.59,843.06 9027.79,808.85 9284.13,634.24 9372.78,573.85 9487.10,495.99 9568.42,440.70 9688.81,356.15 9762.40,308.91 9833.54,260.46 9930.65,194.27 9991.12,153.03 10057.41,108.98 10096.16,83.42 10119.20,69.28 10167.11,43.50 10212.81,21.48"/>
        <lane id="124433726_1" index="1" allow="private emergency authority army vip passenger hov taxi bus coach delivery truck trailer motorcycle evehicle custom1 custom2" speed="31.29" length="14383.37" shape="1.91,7424.88 4.48,7420.50 9.34,7417.85 56.22,7403.29 196.60,7373.11 228.12,7366.53 313.99,7343.66 410.27,7323.88 658.24,7271.05 773.21,7244.49 868.26,7219.85 944.40,7198.84 1005.52,7181.20 1343.56,7081.21 1641.46,6995.83 1754.29,6962.78 1841.19,6937.58 1886.64,6922.15 1919.49,6907.43 1944.47,6893.71 1981.12,6870.89 2007.58,6851.85 2041.31,6824.35 2073.64,6792.71 2098.09,6764.89 2123.48,6731.88 2140.41,6706.57 2156.40,6678.71 2173.75,6641.48 2190.34,6609.78 2208.80,6553.57 2215.90,6517.01 2220.56,6489.85 2221.57,6459.02 2221.17,6419.16 2220.37,6311.46 2219.11,6250.22 2216.35,6188.69 2206.78,6055.01 2192.38,5884.84 2187.83,5826.52 2182.55,5758.55 2177.94,5698.45 2171.28,5613.39 2166.72,5561.89 2162.56,5514.80 2152.28,5398.58 2145.71,5308.86 2126.82,5082.26 2121.91,5017.94 2114.22,4929.15 2107.29,4836.14 2104.99,4785.81 2105.29,4744.62 2106.46,4704.72 2109.81,4658.57 2120.19,4582.38 2126.35,4546.55 2140.92,4477.68 2158.04,4418.75 2186.46,4339.30 2200.77,4303.22 2226.64,4249.53 2242.69,4218.49 2269.07,4172.43 2287.53,4141.96 2311.17,4105.90 2331.68,4077.94 2394.32,4000.37 2493.72,3892.22 2554.13,3827.44 2560.67,3820.22 2642.06,3731.09 2680.21,3690.72 2700.89,3668.58 2861.89,3492.58 2893.55,3458.20 3169.62,3158.29 3285.34,3031.75 3514.59,2782.34 3628.86,2659.13 3776.35,2498.15 3818.08,2452.07 4006.73,2249.24 4015.03,2240.07 4040.79,2211.66 4086.88,2160.82 4135.24,2108.53 4167.29,2073.02 4211.68,2025.94 4230.99,2004.64 4380.38,1843.18 4395.29,1827.04 4457.63,1764.39 4467.78,1755.54 4494.85,1732.22 4529.17,1704.02 4555.31,1683.87 4594.05,1657.53 4640.38,1627.71 4676.87,1605.89 4734.68,1574.94 4812.13,1540.79 4847.38,1526.56 4883.82,1514.18 4901.88,1509.05 4935.98,1498.84 4994.43,1484.04 5035.31,1475.72 5058.77,1471.42 5097.63,1465.66 5159.81,1459.62 5204.22,1457.88 5278.50,1457.15 5302.04,1457.28 5445.01,1456.82 5520.67,1456.59 5748.91,1456.56 5804.37,1456.55 6367.46,1456.53 6497.65,1456.50 6547.12,1456.85 6929.81,1456.37 7323.41,1457.43 7383.88,1457.70 7516.66,1457.40 7608.82,1457.02 7660.28,1457.60 7691.30,1457.94 7772.67,1456.24 7803.95,1454.02 7848.17,1450.83 7885.81,1445.96 7906.58,1443.18 7952.98,1434.80 7956.21,1434.02 8017.49,1419.84 8043.89,1412.65 8062.20,1407.61 8115.60,1389.22 8144.75,1379.16 8172.54,1367.20 8200.87,1354.39 8230.98,1339.62 8268.78,1320.45 8347.72,1275.09 8376.23,1255.71 8413.93,1230.83 8669.15,1057.98 8697.93,1038.28 8926.98,881.40 8979.39,845.70 9029.59,811.50 9285.93,636.89 9374.58,576.49 9488.90,498.64 9570.23,443.34 9690.60,358.81 9764.16,311.58 9835.34,263.11 9932.45,196.92 9992.91,155.69 10059.17,111.64 10097.88,86.12 10120.80,72.06 10168.57,46.36 10214.20,24.37"/>
        <param key="ref" value="I 94"/>
    </edge>
    <edge id="23217904" from="251146636" to="251146637" priority="14" type="highway.motorway" spreadType="center">
        <lane id="23217904_0" index="0" allow="private emergency authority army vip passenger hov taxi bus coach delivery truck trailer motorcycle evehicle custom1 custom2" speed="31.29" length="69.25" shape="10182.08,7.60 10182.16,76.86"/>
        <lane id="23217904_1" index="1" allow="private emergency authority army vip passenger hov taxi bus coach delivery truck trailer motorcycle evehicle custom1 custom2" speed="31.29" length="69.25" shape="10178.88,7.61 10178.96,76.86"/>
        <param key="ref" value="US 23"/>
    </edge>
    <edge id="517170969" from="62506941" to="67884244" priority="14" type="highway.motorway" spreadType="center" shape="6112.32,10772.55 6078.69,10745.33 6057.01,10724.75">
        <lane id="517170969_0" index="0" allow="private emergency authority army vip passenger hov taxi bus coach delivery truck trailer motorcycle evehicle custom1 custom2" speed="31.29" length="72.80" shape="6111.19,10773.69 6077.63,10746.53 6056.05,10726.04"/>
        <lane id="517170969_1" index="1" allow="private emergency authority army vip passenger hov taxi bus coach delivery truck trailer motorcycle evehicle custom1 custom2" speed="31.29" length="72.80" shape="6113.20,10771.20 6079.75,10744.12 6058.26,10723.72"/>
        <param key="ref" value="M 14"/>
    </edge>
    <edge id="518455966" from="67884244" to="-103753" priority="14" type="highway.motorway" spreadType="center" shape="6057.01,10724.75 6028.74,10690.63 6008.95,10661.62 5994.12,10634.65 5980.17,10604.99 5966.99,10569.64 5959.96,10546.08 5952.14,10495.42 5948.16,10428.18 5944.35,10386.73 5937.55,10306.78 5931.50,10266.98 5928.91,10243.05 5919.52,10187.53 5908.85,10136.84 5897.01,10088.83 5882.15,10036.45 5874.31,10013.71 5866.59,9991.28 5854.20,9958.11 5836.97,9916.31 5796.53,9834.25 5776.98,9794.60 5744.99,9728.87 5712.12,9660.21 5698.75,9627.30 5688.94,9600.04 5676.50,9555.28 5667.38,9511.75 5662.66,9470.38 5661.05,9451.12 5659.59,9408.86 5656.52,9254.27 5652.87,9193.57 5648.27,9156.32 5641.07,9120.33 5634.06,9092.16 5624.64,9063.78 5618.82,9047.08 5594.49,8992.30 5574.07,8950.53 5407.66,8650.20 5379.86,8601.01 5365.56,8576.56 5260.60,8447.82 5249.08,8437.36 5222.89,8415.98 5195.44,8397.40 5170.47,8381.99 5141.46,8364.68 5118.56,8353.64 5096.53,8343.81 5062.34,8331.57 5023.48,8319.59 4987.02,8310.66 4941.37,8305.12 4883.99,8301.99 4817.78,8305.45 4623.06,8326.62 4016.14,8393.67 3905.97,8405.85 3839.24,8414.57 3805.71,8420.89 3765.89,8429.51 3745.11,8434.35 3713.78,8441.67 3669.90,8454.99 3570.85,8490.00 3479.70,8524.21 3410.30,8549.59 3205.89,8625.62 3152.45,8644.37 3084.65,8668.26 2955.33,8698.49 2903.00,8705.64 2841.84,8710.42 2778.78,8712.48 2726.39,8710.52 2689.82,8707.49 2644.31,8700.84 2516.49,8673.30 2485.78,8664.67 2423.96,8645.37 2382.42,8626.83 2356.46,8615.23 2300.57,8586.93 2258.31,8561.52 2153.68,8488.69 2061.95,8407.91 2024.59,8375.62 1803.53,8182.12 1702.06,8097.74 1688.64,8086.28 1637.27,8039.94 1523.66,7940.51 1467.24,7891.22 1317.61,7760.79 1313.52,7757.25 1205.96,7663.90 1162.77,7626.00 1127.85,7594.89 1101.15,7573.94 1081.03,7559.87 1054.38,7544.00 1028.27,7529.32 996.80,7514.97 976.21,7507.07 955.29,7499.73 922.47,7490.41 893.30,7484.31 849.65,7478.18 814.92,7475.69 746.80,7473.80 501.20,7465.24 378.20,7461.22 241.70,7455.80 179.89,7451.77 149.39,7448.25 109.84,7448.17 72.93,7445.76 32.55,7442.55 8.19,7437.47 0.92,7434.00">
        <lane id="518455966_0" index="0" allow="private emergency authority army vip passenger hov taxi bus coach delivery truck trailer motorcycle evehicle custom1 custom2" speed="31.29" length="8224.22" shape="6055.66,10725.62 6027.46,10691.60 6007.58,10662.46 5992.69,10635.38 5978.70,10605.61 5965.47,10570.15 5958.39,10546.43 5950.55,10495.59 5946.56,10428.30 5942.75,10386.87 5935.96,10306.97 5929.91,10267.19 5927.32,10243.27 5917.95,10187.83 5907.29,10137.19 5895.46,10089.24 5880.62,10036.93 5872.80,10014.23 5865.08,9991.82 5852.71,9958.69 5835.51,9916.97 5795.09,9834.96 5775.54,9795.30 5743.55,9729.57 5710.65,9660.86 5697.26,9627.87 5687.41,9600.53 5674.95,9555.66 5665.79,9512.01 5661.07,9470.53 5659.45,9451.21 5657.99,9408.90 5654.92,9254.34 5651.28,9193.72 5646.69,9156.57 5639.51,9120.68 5632.52,9092.60 5623.12,9064.30 5617.33,9047.67 5593.04,8992.97 5572.65,8951.26 5406.27,8650.98 5378.47,8601.80 5364.24,8577.47 5259.44,8448.92 5248.04,8438.58 5221.93,8417.26 5194.57,8398.74 5169.64,8383.36 5140.70,8366.09 5117.89,8355.09 5095.93,8345.30 5061.83,8333.09 5023.06,8321.13 4986.73,8312.24 4941.23,8306.72 4883.99,8303.59 4817.91,8307.05 4623.23,8328.21 4016.32,8395.27 3906.16,8407.44 3839.50,8416.16 3806.03,8422.46 3766.24,8431.07 3745.47,8435.91 3714.19,8443.21 3670.39,8456.51 3571.40,8491.51 3480.26,8525.71 3410.85,8551.09 3206.43,8627.12 3152.98,8645.88 3085.10,8669.79 2955.62,8700.06 2903.17,8707.23 2841.93,8712.02 2778.77,8714.08 2726.30,8712.12 2689.64,8709.08 2644.02,8702.42 2516.11,8674.86 2485.33,8666.20 2423.40,8646.87 2381.77,8628.29 2355.77,8616.67 2299.80,8588.33 2257.44,8562.87 2152.69,8489.95 2060.90,8409.11 2023.54,8376.82 1802.50,8183.33 1701.03,8098.96 1687.59,8087.48 1636.21,8041.14 1522.61,7941.71 1466.19,7892.43 1316.55,7762.00 1312.47,7758.46 1204.91,7665.11 1161.71,7627.20 1126.82,7596.12 1100.20,7575.23 1080.17,7561.21 1053.58,7545.39 1027.54,7530.75 996.19,7516.44 975.66,7508.58 954.80,7501.25 922.09,7491.97 893.02,7485.89 849.48,7479.77 814.84,7477.29 746.75,7475.39 501.14,7466.84 378.15,7462.82 241.62,7457.40 179.74,7453.36 149.29,7449.85 109.79,7449.77 72.82,7447.35 32.32,7444.14 7.67,7438.99 1.85,7436.21"/>
        <lane id="518455966_1" index="1" allow="private emergency authority army vip passenger hov taxi bus coach delivery truck trailer motorcycle evehicle custom1 custom2" speed="31.29" length="8224.22" shape="6058.12,10723.58 6030.02,10689.67 6010.31,10660.78 5995.55,10633.93 5981.65,10604.37 5968.51,10569.13 5961.52,10545.73 5953.73,10495.25 5949.75,10428.06 5945.94,10386.59 5939.14,10306.59 5933.08,10266.77 5930.49,10242.83 5921.09,10187.23 5910.41,10136.48 5898.56,10088.42 5883.67,10035.97 5875.82,10013.18 5868.10,9990.74 5855.69,9957.52 5838.43,9915.65 5797.97,9833.54 5778.41,9793.89 5746.43,9728.18 5713.58,9659.57 5700.25,9626.72 5690.46,9599.56 5678.06,9554.90 5668.96,9511.50 5664.25,9470.22 5662.64,9451.02 5661.19,9408.81 5658.12,9254.21 5654.47,9193.43 5649.85,9156.06 5642.63,9119.98 5635.60,9091.71 5626.15,9063.26 5620.31,9046.49 5595.94,8991.62 5575.49,8949.79 5409.06,8649.42 5381.25,8600.21 5366.88,8575.64 5261.77,8446.71 5250.13,8436.15 5223.85,8414.69 5196.31,8396.06 5171.30,8380.62 5142.22,8363.27 5119.24,8352.19 5097.12,8342.33 5062.84,8330.05 5023.91,8318.04 4987.30,8309.08 4941.51,8303.53 4883.99,8300.39 4817.65,8303.86 4622.89,8325.03 4015.97,8392.08 3905.78,8404.26 3838.99,8412.99 3805.39,8419.32 3765.54,8427.95 3744.74,8432.80 3713.36,8440.12 3669.40,8453.47 3570.30,8488.50 3479.15,8522.71 3409.75,8548.09 3205.35,8624.11 3151.92,8642.86 3084.20,8666.72 2955.04,8696.91 2902.83,8704.05 2841.75,8708.82 2778.78,8710.88 2726.49,8708.92 2690.00,8705.90 2644.59,8699.27 2516.88,8671.75 2486.24,8663.14 2424.53,8643.87 2383.08,8625.37 2357.15,8613.78 2301.35,8585.53 2259.18,8560.18 2154.67,8487.43 2063.01,8406.70 2025.64,8374.41 1804.57,8180.90 1703.09,8096.51 1689.70,8085.08 1638.34,8038.75 1524.72,7939.30 1468.29,7890.02 1318.66,7759.59 1314.57,7756.04 1207.01,7662.70 1163.83,7624.80 1128.87,7593.66 1102.10,7572.66 1081.90,7558.52 1055.18,7542.62 1029.00,7527.89 997.42,7513.49 976.77,7505.57 955.77,7498.20 922.85,7488.86 893.57,7482.74 849.82,7476.59 815.00,7474.09 746.85,7472.20 501.25,7463.64 378.26,7459.62 241.79,7454.20 180.03,7450.18 149.48,7446.65 109.89,7446.57 73.05,7444.16 32.78,7440.97 8.70,7435.94 3.23,7433.33"/>
        <param key="ref" value="M 14"/>
    </edge>