<?xml version="1.0" encoding="UTF-8"?>

<!-- generated on 2021-08-20 22:54:11 by Eclipse SUMO netedit Version 1.10.0
<configuration xmlns:xsi="http://www.w3.org/2001/XMLSchema-instance" xsi:noNamespaceSchemaLocation="http://sumo.dlr.de/xsd/netconvertConfiguration.xsd">

    <input>
        <sumo-net-file value="C:\Users\kusari\Documents\Python%20Projects\Simulation-software-architecture\sumo_gym\highway_route_files\osm.net.xml"/>
    </input>

    <output>
        <output-file value="C:\Users\kusari\Documents\Python%20Projects\Simulation-software-architecture\sumo_gym\highway_route_files\osm.net.xml"/>
    </output>

    <processing>
        <geometry.min-radius.fix.railways value="false"/>
        <geometry.max-grade.fix value="false"/>
        <offset.disable-normalization value="true"/>
        <lefthand value="false"/>
    </processing>

    <junctions>
        <no-turnarounds value="true"/>
        <junctions.corner-detail value="5"/>
        <junctions.limit-turn-speed value="5.5"/>
        <rectangular-lane-cut value="false"/>
    </junctions>

    <pedestrian>
        <walkingareas value="false"/>
    </pedestrian>

    <netedit>
        <route-files value="C:\Users\kusari\Documents\Python%20Projects\Simulation-software-architecture\sumo_gym\highway_route_files\osm.rou.xml"/>
    </netedit>

    <report>
        <aggregate-warnings value="5"/>
    </report>

</configuration>
-->

<routes xmlns:xsi="http://www.w3.org/2001/XMLSchema-instance" xsi:noNamespaceSchemaLocation="http://sumo.dlr.de/xsd/routes_file.xsd">
    <trip id="veh0" depart="0.00" departPos="random" departSpeed="30.00" color="red" from="124433726" to="517170965" via="23079503 23079502 220170151 440954808"/>
    <trip id="veh1" depart="0.00" departPos="random" departSpeed="random" from="124433726" to="517170965" via="23079502 518877179 220170151 440954808"/>
    <trip id="veh2" depart="0.00" departPos="random" departSpeed="random" from="23079502" to="517170965" via="220170151 440954808"/>
</routes>
