<configuration>
    <input>
        <net-file value="osm-v1.net.xml"/>
        <route-files value="osm-v1.rou.xml"/>
    </input>
    <time>
        <begin value="0"/>
        <end value="10000"/>
    </time>
</configuration>