<?xml version="1.0" encoding="UTF-8"?>

<!-- generated on 2021-08-20 15:26:28 by Eclipse SUMO netconvert Version 1.10.0
<configuration xmlns:xsi="http://www.w3.org/2001/XMLSchema-instance" xsi:noNamespaceSchemaLocation="http://sumo.dlr.de/xsd/netconvertConfiguration.xsd">

    <input>
        <osm-files value="highway_ann_arbor.osm"/>
    </input>

    <output>
        <output-file value="osm.net.xml"/>
        <output.street-names value="true"/>
        <output.original-names value="true"/>
    </output>

    <projection>
        <proj.utm value="true"/>
    </projection>

    <processing>
        <geometry.remove value="true"/>
        <roundabouts.guess value="true"/>
    </processing>

    <tls_building>
        <tls.discard-simple value="true"/>
        <tls.join value="true"/>
        <tls.guess-signals value="true"/>
    </tls_building>

    <ramp_guessing>
        <ramps.guess value="true"/>
    </ramp_guessing>

    <junctions>
        <junctions.join value="true"/>
        <junctions.corner-detail value="5"/>
    </junctions>

    <report>
        <verbose value="true"/>
        <aggregate-warnings value="5"/>
    </report>

</configuration>
-->

<net version="1.9" junctionCornerDetail="5" limitTurnSpeed="5.50" xmlns:xsi="http://www.w3.org/2001/XMLSchema-instance" xsi:noNamespaceSchemaLocation="http://sumo.dlr.de/xsd/net_file.xsd">

    <location netOffset="-268220.63,-4678258.67" convBoundary="0.00,0.00,11124.97,11067.24" origBoundary="-83.811320,42.225088,-83.675806,42.324180" projParameter="+proj=utm +zone=17 +ellps=WGS84 +datum=WGS84 +units=m +no_defs"/>

    <type id="highway.bridleway" priority="1" numLanes="1" speed="2.78" allow="pedestrian" oneway="1" width="2.00"/>
    <type id="highway.bus_guideway" priority="1" numLanes="1" speed="27.78" allow="bus" oneway="1"/>
    <type id="highway.cycleway" priority="1" numLanes="1" speed="8.33" allow="bicycle" oneway="0" width="1.00"/>
    <type id="highway.footway" priority="1" numLanes="1" speed="2.78" allow="pedestrian" oneway="1" width="2.00"/>
    <type id="highway.ford" priority="1" numLanes="1" speed="2.78" allow="army" oneway="0"/>
    <type id="highway.living_street" priority="2" numLanes="1" speed="2.78" disallow="tram rail_urban rail rail_electric rail_fast ship" oneway="0"/>
    <type id="highway.motorway" priority="14" numLanes="2" speed="39.44" allow="private emergency authority army vip passenger hov taxi bus coach delivery truck trailer motorcycle evehicle custom1 custom2" oneway="1"/>
    <type id="highway.motorway_link" priority="9" numLanes="1" speed="22.22" allow="private emergency authority army vip passenger hov taxi bus coach delivery truck trailer motorcycle evehicle custom1 custom2" oneway="1"/>
    <type id="highway.path" priority="1" numLanes="1" speed="2.78" allow="pedestrian bicycle" oneway="0" width="2.00"/>
    <type id="highway.pedestrian" priority="1" numLanes="1" speed="2.78" allow="pedestrian" oneway="1" width="2.00"/>
    <type id="highway.primary" priority="12" numLanes="2" speed="27.78" disallow="tram rail_urban rail rail_electric rail_fast ship" oneway="0"/>
    <type id="highway.primary_link" priority="7" numLanes="1" speed="22.22" disallow="tram rail_urban rail rail_electric rail_fast ship" oneway="0"/>
    <type id="highway.raceway" priority="15" numLanes="2" speed="83.33" allow="vip" oneway="0"/>
    <type id="highway.residential" priority="3" numLanes="1" speed="13.89" disallow="tram rail_urban rail rail_electric rail_fast ship" oneway="0"/>
    <type id="highway.secondary" priority="11" numLanes="1" speed="27.78" disallow="tram rail_urban rail rail_electric rail_fast ship" oneway="0"/>
    <type id="highway.secondary_link" priority="6" numLanes="1" speed="22.22" disallow="tram rail_urban rail rail_electric rail_fast ship" oneway="0"/>
    <type id="highway.service" priority="1" numLanes="1" speed="5.56" allow="pedestrian delivery bicycle" oneway="0"/>
    <type id="highway.stairs" priority="1" numLanes="1" speed="1.39" allow="pedestrian" oneway="1" width="2.00"/>
    <type id="highway.step" priority="1" numLanes="1" speed="1.39" allow="pedestrian" oneway="1" width="2.00"/>
    <type id="highway.steps" priority="1" numLanes="1" speed="1.39" allow="pedestrian" oneway="1" width="2.00"/>
    <type id="highway.tertiary" priority="10" numLanes="1" speed="22.22" disallow="tram rail_urban rail rail_electric rail_fast ship" oneway="0"/>
    <type id="highway.tertiary_link" priority="5" numLanes="1" speed="22.22" disallow="tram rail_urban rail rail_electric rail_fast ship" oneway="0"/>
    <type id="highway.track" priority="1" numLanes="1" speed="5.56" allow="pedestrian motorcycle moped bicycle" oneway="0"/>
    <type id="highway.trunk" priority="13" numLanes="2" speed="27.78" disallow="pedestrian bicycle tram rail_urban rail rail_electric rail_fast ship" oneway="0"/>
    <type id="highway.trunk_link" priority="8" numLanes="1" speed="22.22" disallow="pedestrian bicycle tram rail_urban rail rail_electric rail_fast ship" oneway="0"/>
    <type id="highway.unclassified" priority="4" numLanes="1" speed="13.89" disallow="tram rail_urban rail rail_electric rail_fast ship" oneway="0"/>
    <type id="highway.unsurfaced" priority="1" numLanes="1" speed="8.33" disallow="tram rail_urban rail rail_electric rail_fast ship" oneway="0"/>
    <type id="railway.highspeed" priority="21" numLanes="1" speed="69.44" allow="rail_fast" oneway="1"/>
    <type id="railway.light_rail" priority="19" numLanes="1" speed="27.78" allow="rail_urban" oneway="1"/>
    <type id="railway.preserved" priority="16" numLanes="1" speed="27.78" allow="rail" oneway="1"/>
    <type id="railway.rail" priority="20" numLanes="1" speed="44.44" allow="rail" oneway="1"/>
    <type id="railway.subway" priority="18" numLanes="1" speed="27.78" allow="rail_urban" oneway="1"/>
    <type id="railway.tram" priority="17" numLanes="1" speed="13.89" allow="tram" oneway="1"/>

    <edge id=":123323666#1-AddedOnRampNode_0" function="internal">
        <lane id=":123323666#1-AddedOnRampNode_0_0" index="0" allow="private emergency authority army vip passenger hov taxi bus coach delivery truck trailer motorcycle evehicle custom1 custom2" speed="31.29" length="8.00" shape="72.82,7447.85 64.84,7447.32"/>
        <lane id=":123323666#1-AddedOnRampNode_0_1" index="1" allow="private emergency authority army vip passenger hov taxi bus coach delivery truck trailer motorcycle evehicle custom1 custom2" speed="31.29" length="8.00" shape="73.03,7444.66 65.05,7444.13"/>
    </edge>
    <edge id=":1375675580_0" function="internal">
        <lane id=":1375675580_0_0" index="0" allow="private emergency authority army vip passenger hov taxi bus coach delivery truck trailer motorcycle evehicle custom1 custom2" speed="31.29" length="8.17" shape="6132.48,10509.88 6134.14,10511.60 6135.55,10512.50 6137.00,10513.39 6138.72,10515.06"/>
    </edge>
    <edge id=":1385118013_0" function="internal">
        <lane id=":1385118013_0_0" index="0" allow="private emergency authority army vip passenger hov taxi bus coach delivery truck trailer motorcycle evehicle custom1 custom2" speed="31.29" length="8.08" shape="557.23,7397.45 555.16,7398.69 553.92,7399.85 552.66,7400.98 550.55,7402.11"/>
        <lane id=":1385118013_0_1" index="1" allow="private emergency authority army vip passenger hov taxi bus coach delivery truck trailer motorcycle evehicle custom1 custom2" speed="31.29" length="8.08" shape="555.88,7394.55 553.85,7395.77 552.64,7396.92 551.41,7398.03 549.34,7399.15"/>
        <lane id=":1385118013_0_2" index="2" allow="private emergency authority army vip passenger hov taxi bus coach delivery truck trailer motorcycle evehicle custom1 custom2" speed="31.29" length="8.08" shape="555.88,7394.55 553.67,7395.30 552.04,7395.44 550.39,7395.54 548.13,7396.19"/>
    </edge>
    <edge id=":249111163_0" function="internal">
        <lane id=":249111163_0_0" index="0" allow="private emergency authority army vip passenger hov taxi bus coach delivery truck trailer motorcycle evehicle custom1 custom2" speed="31.29" length="8.18" shape="10405.40,3236.08 10405.63,3238.46 10406.18,3240.04 10406.74,3241.63 10407.03,3244.01"/>
        <lane id=":249111163_0_1" index="1" allow="private emergency authority army vip passenger hov taxi bus coach delivery truck trailer motorcycle evehicle custom1 custom2" speed="31.29" length="8.18" shape="10405.40,3236.08 10405.13,3238.47 10404.58,3240.07 10404.04,3241.66 10403.83,3244.05"/>
        <lane id=":249111163_0_2" index="2" allow="private emergency authority army vip passenger hov taxi bus coach delivery truck trailer motorcycle evehicle custom1 custom2" speed="31.29" length="8.18" shape="10402.20,3236.06 10401.93,3238.47 10401.38,3240.08 10400.84,3241.69 10400.63,3244.10"/>
    </edge>
    <edge id=":249111164_0" function="internal">
        <lane id=":249111164_0_0" index="0" allow="private emergency authority army vip passenger hov taxi bus coach delivery truck trailer motorcycle evehicle custom1 custom2" speed="31.29" length="8.09" shape="10404.87,3317.50 10405.15,3319.88 10405.70,3321.48 10406.23,3323.08 10406.42,3325.46"/>
        <lane id=":249111164_0_1" index="1" allow="private emergency authority army vip passenger hov taxi bus coach delivery truck trailer motorcycle evehicle custom1 custom2" speed="31.29" length="8.09" shape="10401.67,3317.55 10401.95,3319.89 10402.50,3321.46 10403.03,3323.03 10403.22,3325.37"/>
    </edge>
    <edge id=":249111165_0" function="internal">
        <lane id=":249111165_0_0" index="0" allow="private emergency authority army vip passenger hov taxi bus coach delivery truck trailer motorcycle evehicle custom1 custom2" speed="31.29" length="8.08" shape="10374.52,3250.96 10374.23,3248.64 10373.63,3247.11 10372.98,3245.58 10372.56,3243.27"/>
        <lane id=":249111165_0_1" index="1" allow="private emergency authority army vip passenger hov taxi bus coach delivery truck trailer motorcycle evehicle custom1 custom2" speed="31.29" length="8.08" shape="10377.72,3250.90 10377.43,3248.53 10376.82,3246.96 10376.18,3245.39 10375.75,3243.02"/>
    </edge>
    <edge id=":249111166_0" function="internal">
        <lane id=":249111166_0_0" index="0" allow="private emergency authority army vip passenger hov taxi bus coach delivery truck trailer motorcycle evehicle custom1 custom2" speed="31.29" length="8.20" shape="10374.31,3334.69 10374.05,3332.31 10373.49,3330.72 10372.92,3329.13 10372.63,3326.75"/>
        <lane id=":249111166_0_1" index="1" allow="private emergency authority army vip passenger hov taxi bus coach delivery truck trailer motorcycle evehicle custom1 custom2" speed="31.29" length="8.20" shape="10374.31,3334.69 10374.55,3332.29 10375.09,3330.69 10375.62,3329.09 10375.83,3326.69"/>
        <lane id=":249111166_0_2" index="2" allow="private emergency authority army vip passenger hov taxi bus coach delivery truck trailer motorcycle evehicle custom1 custom2" speed="31.29" length="8.20" shape="10377.51,3334.68 10377.75,3332.27 10378.29,3330.66 10378.82,3329.05 10379.03,3326.64"/>
    </edge>
    <edge id=":6057917651_0" function="internal">
        <lane id=":6057917651_0_0" index="0" allow="private emergency authority army vip passenger hov taxi bus coach delivery truck trailer motorcycle evehicle custom1 custom2" speed="30.18" length="0.10" shape="4820.52,8277.19 4820.52,8277.19"/>
        <lane id=":6057917651_0_1" index="1" allow="private emergency authority army vip passenger hov taxi bus coach delivery truck trailer motorcycle evehicle custom1 custom2" speed="30.18" length="0.10" shape="4820.67,8280.39 4820.67,8280.39"/>
    </edge>
    <edge id=":62470881_0" function="internal">
        <lane id=":62470881_0_0" index="0" allow="private emergency authority army vip passenger hov taxi bus coach delivery truck trailer motorcycle evehicle custom1 custom2" speed="31.29" length="8.16" shape="6003.99,10261.19 6005.18,10263.24 6006.34,10264.44 6007.53,10265.62 6008.81,10267.63"/>
        <lane id=":62470881_0_1" index="1" allow="private emergency authority army vip passenger hov taxi bus coach delivery truck trailer motorcycle evehicle custom1 custom2" speed="31.29" length="8.16" shape="6001.07,10262.50 6002.28,10264.59 6003.45,10265.81 6004.65,10267.02 6005.95,10269.06"/>
    </edge>
    <edge id=":62470905_0" function="internal">
        <lane id=":62470905_0_0" index="0" allow="private emergency authority army vip passenger hov taxi bus coach delivery truck trailer motorcycle evehicle custom1 custom2" speed="31.29" length="8.13" shape="5922.89,10271.13 5922.28,10268.79 5921.52,10267.27 5920.78,10265.75 5920.27,10263.39"/>
        <lane id=":62470905_0_1" index="1" allow="private emergency authority army vip passenger hov taxi bus coach delivery truck trailer motorcycle evehicle custom1 custom2" speed="31.29" length="8.13" shape="5922.89,10271.13 5922.78,10268.74 5923.11,10267.10 5923.46,10265.45 5923.45,10263.05"/>
        <lane id=":62470905_0_2" index="2" allow="private emergency authority army vip passenger hov taxi bus coach delivery truck trailer motorcycle evehicle custom1 custom2" speed="31.29" length="8.13" shape="5926.05,10270.65 5925.95,10268.30 5926.28,10266.68 5926.64,10265.06 5926.64,10262.71"/>
    </edge>
    <edge id=":62478237_0" function="internal">
        <lane id=":62478237_0_0" index="0" allow="private emergency authority army vip passenger hov taxi bus coach delivery truck trailer motorcycle evehicle custom1 custom2" speed="31.29" length="8.16" shape="11075.81,5137.44 11075.53,5135.05 11074.97,5133.45 11074.43,5131.85 11074.21,5129.45"/>
        <lane id=":62478237_0_1" index="1" allow="private emergency authority army vip passenger hov taxi bus coach delivery truck trailer motorcycle evehicle custom1 custom2" speed="31.29" length="8.16" shape="11079.01,5137.40 11078.73,5135.03 11078.17,5133.44 11077.63,5131.86 11077.41,5129.49"/>
    </edge>
    <edge id=":62482853_0" function="internal">
        <lane id=":62482853_0_0" index="0" allow="private emergency authority army vip passenger hov taxi bus coach delivery truck trailer motorcycle evehicle custom1 custom2" speed="31.29" length="8.12" shape="10236.96,10475.95 10237.05,10478.35 10237.47,10479.99 10237.86,10481.63 10237.86,10484.02"/>
        <lane id=":62482853_0_1" index="1" allow="private emergency authority army vip passenger hov taxi bus coach delivery truck trailer motorcycle evehicle custom1 custom2" speed="31.29" length="8.12" shape="10233.77,10475.73 10233.86,10478.10 10234.28,10479.71 10234.68,10481.33 10234.68,10483.69"/>
    </edge>
    <edge id=":62483238_0" function="internal">
        <lane id=":62483238_0_0" index="0" allow="private emergency authority army vip passenger hov taxi bus coach delivery truck trailer motorcycle evehicle custom1 custom2" speed="31.29" length="8.14" shape="10304.07,9539.84 10304.29,9542.25 10304.80,9543.87 10305.28,9545.49 10305.41,9547.90"/>
        <lane id=":62483238_0_1" index="1" allow="private emergency authority army vip passenger hov taxi bus coach delivery truck trailer motorcycle evehicle custom1 custom2" speed="31.29" length="8.14" shape="10304.07,9539.84 10303.79,9542.21 10303.20,9543.79 10302.59,9545.36 10302.21,9547.73"/>
        <lane id=":62483238_0_2" index="2" allow="private emergency authority army vip passenger hov taxi bus coach delivery truck trailer motorcycle evehicle custom1 custom2" speed="31.29" length="8.14" shape="10300.87,9539.80 10300.59,9542.13 10300.01,9543.68 10299.39,9545.23 10299.02,9547.56"/>
    </edge>
    <edge id=":62503711_0" function="internal">
        <lane id=":62503711_0_0" index="0" allow="private emergency authority army vip passenger hov taxi bus coach delivery truck trailer motorcycle evehicle custom1 custom2" speed="31.29" length="3.44" shape="170.45,7451.76 169.49,7452.03 168.93,7452.59 168.36,7453.13 167.40,7453.37"/>
        <lane id=":62503711_0_1" index="1" allow="private emergency authority army vip passenger hov taxi bus coach delivery truck trailer motorcycle evehicle custom1 custom2" speed="31.29" length="3.44" shape="170.40,7448.56 169.46,7448.83 168.92,7449.39 168.38,7449.93 167.44,7450.17"/>
        <lane id=":62503711_0_2" index="2" allow="private emergency authority army vip passenger hov taxi bus coach delivery truck trailer motorcycle evehicle custom1 custom2" speed="31.29" length="3.44" shape="170.34,7445.36 167.48,7446.97"/>
    </edge>
    <edge id=":62503711_3" function="internal">
        <lane id=":62503711_3_0" index="0" allow="private emergency authority army vip passenger hov taxi bus coach delivery truck trailer motorcycle evehicle custom1 custom2" speed="31.29" length="3.22" shape="170.59,7459.72 167.32,7459.77"/>
        <lane id=":62503711_3_1" index="1" allow="private emergency authority army vip passenger hov taxi bus coach delivery truck trailer motorcycle evehicle custom1 custom2" speed="31.29" length="3.22" shape="170.53,7456.52 167.36,7456.57"/>
    </edge>
    <edge id=":62506922_0" function="internal">
        <lane id=":62506922_0_0" index="0" allow="private emergency authority army vip passenger hov taxi bus coach delivery truck trailer motorcycle evehicle custom1 custom2" speed="31.29" length="3.06" shape="6551.86,10696.00 6554.82,10696.77"/>
    </edge>
    <edge id=":62506922_1" function="internal">
        <lane id=":62506922_1_0" index="0" allow="private emergency authority army vip passenger hov taxi bus coach delivery truck trailer motorcycle evehicle custom1 custom2" speed="31.29" length="2.93" shape="6551.12,10699.14 6554.01,10699.86"/>
        <lane id=":62506922_1_1" index="1" allow="private emergency authority army vip passenger hov taxi bus coach delivery truck trailer motorcycle evehicle custom1 custom2" speed="31.29" length="2.93" shape="6550.39,10702.25 6553.19,10702.96"/>
    </edge>
    <edge id=":62506927_0" function="internal">
        <lane id=":62506927_0_0" index="0" allow="private emergency authority army vip passenger hov taxi bus coach delivery truck trailer motorcycle evehicle custom1 custom2" speed="31.29" length="2.99" shape="6596.90,10870.24 6593.86,10870.00"/>
        <lane id=":62506927_0_1" index="1" allow="private emergency authority army vip passenger hov taxi bus coach delivery truck trailer motorcycle evehicle custom1 custom2" speed="31.29" length="2.99" shape="6597.10,10867.05 6594.17,10866.81"/>
    </edge>
    <edge id=":62506927_2" function="internal">
        <lane id=":62506927_2_0" index="0" allow="private emergency authority army vip passenger hov taxi bus coach delivery truck trailer motorcycle evehicle custom1 custom2" speed="31.29" length="2.84" shape="6597.31,10863.86 6594.48,10863.62"/>
    </edge>
    <edge id=":62506941_0" function="internal">
        <lane id=":62506941_0_0" index="0" allow="private emergency authority army vip passenger hov taxi bus coach delivery truck trailer motorcycle evehicle custom1 custom2" speed="31.29" length="7.72" shape="6107.84,10774.61 6105.79,10773.56 6104.22,10773.13 6102.69,10772.65 6100.78,10771.43"/>
        <lane id=":62506941_0_1" index="1" allow="private emergency authority army vip passenger hov taxi bus coach delivery truck trailer motorcycle evehicle custom1 custom2" speed="31.29" length="7.72" shape="6107.84,10774.61 6106.13,10773.18 6105.23,10771.89 6104.38,10770.54 6102.79,10768.94"/>
    </edge>
    <edge id=":62582322_0" function="internal">
        <lane id=":62582322_0_0" index="0" allow="private emergency authority army vip passenger hov taxi bus coach delivery truck trailer motorcycle evehicle custom1 custom2" speed="31.29" length="7.31" shape="9593.81,10940.82 9595.83,10940.21 9597.20,10939.75 9598.54,10939.21 9600.48,10938.37"/>
        <lane id=":62582322_0_1" index="1" allow="private emergency authority army vip passenger hov taxi bus coach delivery truck trailer motorcycle evehicle custom1 custom2" speed="31.29" length="7.31" shape="9594.72,10943.88 9596.85,10943.24 9598.30,10942.76 9599.72,10942.19 9601.76,10941.30"/>
    </edge>
    <edge id=":62582679_0" function="internal">
        <lane id=":62582679_0_0" index="0" allow="private emergency authority army vip passenger hov taxi bus coach delivery truck trailer motorcycle evehicle custom1 custom2" speed="30.18" length="7.81" shape="5700.93,9596.30 5701.87,9598.32 5702.89,9599.51 5703.96,9600.68 5705.08,9602.63"/>
        <lane id=":62582679_0_1" index="1" allow="private emergency authority army vip passenger hov taxi bus coach delivery truck trailer motorcycle evehicle custom1 custom2" speed="30.18" length="7.81" shape="5700.93,9596.30 5701.42,9598.54 5701.42,9600.15 5701.48,9601.75 5702.15,9603.91"/>
        <lane id=":62582679_0_2" index="2" allow="private emergency authority army vip passenger hov taxi bus coach delivery truck trailer motorcycle evehicle custom1 custom2" speed="30.18" length="7.81" shape="5697.89,9597.32 5698.41,9599.63 5698.43,9601.30 5698.51,9602.95 5699.21,9605.19"/>
    </edge>
    <edge id=":62582773_0" function="internal">
        <lane id=":62582773_0_0" index="0" allow="private emergency authority army vip passenger hov taxi bus coach delivery truck trailer motorcycle evehicle custom1 custom2" speed="31.29" length="8.71" shape="9430.50,10998.54 9428.02,10999.54 9426.75,11001.32 9425.48,11003.10 9423.01,11004.10"/>
        <lane id=":62582773_0_1" index="1" allow="private emergency authority army vip passenger hov taxi bus coach delivery truck trailer motorcycle evehicle custom1 custom2" speed="31.29" length="8.71" shape="9430.50,10998.54 9428.14,10999.03 9426.60,10999.73 9425.05,11000.43 9422.69,11000.92"/>
        <lane id=":62582773_0_2" index="2" allow="private emergency authority army vip passenger hov taxi bus coach delivery truck trailer motorcycle evehicle custom1 custom2" speed="31.29" length="8.71" shape="9430.19,10995.36 9427.82,10995.84 9426.28,10996.54 9424.74,10997.25 9422.38,10997.74"/>
    </edge>
    <edge id=":62582798_0" function="internal">
        <lane id=":62582798_0_0" index="0" allow="private emergency authority army vip passenger hov taxi bus coach delivery truck trailer motorcycle evehicle custom1 custom2" speed="31.29" length="8.21" shape="5790.68,9837.84 5789.40,9835.80 5788.20,9834.60 5786.99,9833.41 5785.71,9831.37"/>
        <lane id=":62582798_0_1" index="1" allow="private emergency authority army vip passenger hov taxi bus coach delivery truck trailer motorcycle evehicle custom1 custom2" speed="31.29" length="8.21" shape="5793.55,9836.42 5792.27,9834.38 5791.07,9833.19 5789.86,9832.00 5788.58,9829.96"/>
    </edge>
    <edge id=":62582799_0" function="internal">
        <lane id=":62582799_0_0" index="0" allow="private emergency authority army vip passenger hov taxi bus coach delivery truck trailer motorcycle evehicle custom1 custom2" speed="30.18" length="0.24" shape="5689.70,9628.01 5689.59,9627.73"/>
        <lane id=":62582799_0_1" index="1" allow="private emergency authority army vip passenger hov taxi bus coach delivery truck trailer motorcycle evehicle custom1 custom2" speed="30.18" length="0.24" shape="5692.66,9626.81 5692.60,9626.64"/>
    </edge>
    <edge id=":62582885_0" function="internal">
        <lane id=":62582885_0_0" index="0" allow="private emergency authority army vip passenger hov taxi bus coach delivery truck trailer motorcycle evehicle custom1 custom2" speed="30.18" length="0.21" shape="4933.66,8306.72 4933.56,8306.71"/>
        <lane id=":62582885_0_1" index="1" allow="private emergency authority army vip passenger hov taxi bus coach delivery truck trailer motorcycle evehicle custom1 custom2" speed="30.18" length="0.21" shape="4934.05,8303.55 4933.73,8303.52"/>
    </edge>
    <edge id=":62587572_0" function="internal">
        <lane id=":62587572_0_0" index="0" allow="private emergency authority army vip passenger hov taxi bus coach delivery truck trailer motorcycle evehicle custom1 custom2" speed="31.29" length="8.21" shape="10272.88,8717.92 10272.62,8715.52 10272.06,8713.92 10271.50,8712.33 10271.24,8709.93"/>
        <lane id=":62587572_0_1" index="1" allow="private emergency authority army vip passenger hov taxi bus coach delivery truck trailer motorcycle evehicle custom1 custom2" speed="31.29" length="8.21" shape="10276.08,8717.91 10275.82,8715.51 10275.26,8713.91 10274.70,8712.31 10274.44,8709.91"/>
    </edge>
    <edge id=":69907828_0" function="internal">
        <lane id=":69907828_0_0" index="0" allow="private emergency authority army vip passenger hov taxi bus coach delivery truck trailer motorcycle evehicle custom1 custom2" speed="31.29" length="8.21" shape="10273.07,9079.22 10272.81,9076.83 10272.25,9075.24 10271.68,9073.64 10271.40,9071.25"/>
        <lane id=":69907828_0_1" index="1" allow="private emergency authority army vip passenger hov taxi bus coach delivery truck trailer motorcycle evehicle custom1 custom2" speed="31.29" length="8.21" shape="10273.07,9079.22 10273.31,9076.83 10273.85,9075.22 10274.38,9073.61 10274.60,9071.21"/>
        <lane id=":69907828_0_2" index="2" allow="private emergency authority army vip passenger hov taxi bus coach delivery truck trailer motorcycle evehicle custom1 custom2" speed="31.29" length="8.21" shape="10276.27,9079.20 10276.51,9076.80 10277.04,9075.19 10277.58,9073.58 10277.80,9071.17"/>
    </edge>
    <edge id=":963587141_0" function="internal">
        <lane id=":963587141_0_0" index="0" allow="private emergency authority army vip passenger hov taxi bus coach delivery truck trailer motorcycle evehicle custom1 custom2" speed="31.29" length="8.21" shape="11078.44,5474.59 11078.14,5472.19 11077.56,5470.59 11076.99,5468.99 11076.71,5466.60"/>
        <lane id=":963587141_0_1" index="1" allow="private emergency authority army vip passenger hov taxi bus coach delivery truck trailer motorcycle evehicle custom1 custom2" speed="31.29" length="8.21" shape="11078.44,5474.59 11078.64,5472.19 11079.16,5470.57 11079.69,5468.96 11079.91,5466.56"/>
        <lane id=":963587141_0_2" index="2" allow="private emergency authority army vip passenger hov taxi bus coach delivery truck trailer motorcycle evehicle custom1 custom2" speed="31.29" length="8.21" shape="11081.64,5474.52 11081.84,5472.13 11082.36,5470.52 11082.89,5468.92 11083.11,5466.53"/>
    </edge>

    <edge id="123323666#1" from="123323666#1-AddedOnRampNode" to="-102980" priority="14" type="highway.motorway" spreadType="center" shape="68.94,7445.99 65.32,7445.76 24.93,7442.55 0.00,7432.75 1.10,7416.37 48.19,7401.74 188.66,7371.54 220.13,7364.97 251.52,7357.75">
        <lane id="123323666#1_0" index="0" allow="private emergency authority army vip passenger hov taxi bus coach delivery truck trailer motorcycle evehicle custom1 custom2" speed="31.29" length="340.69" shape="64.84,7447.32 24.57,7444.13 -1.67,7433.81 -0.42,7415.17 47.79,7400.19 188.32,7369.98 219.79,7363.41 251.16,7356.19">
            <param key="origId" value="123323666"/>
        </lane>
        <lane id="123323666#1_1" index="1" allow="private emergency authority army vip passenger hov taxi bus coach delivery truck trailer motorcycle evehicle custom1 custom2" speed="31.29" length="340.69" shape="65.05,7444.13 25.30,7440.98 1.67,7431.69 2.62,7417.57 48.60,7403.29 188.99,7373.11 220.48,7366.53 251.88,7359.31">
            <param key="origId" value="123323666"/>
        </lane>
        <param key="ref" value="M 14"/>
    </edge>
    <edge id="123323666#1-AddedOnRampEdge" from="62503711" to="123323666#1-AddedOnRampNode" priority="14" type="highway.motorway" spreadType="center" shape="168.80,7453.39 141.74,7453.05 102.06,7452.97 68.62,7450.78">
        <lane id="123323666#1-AddedOnRampEdge_0" index="0" allow="private emergency authority army vip passenger hov taxi bus coach delivery truck trailer motorcycle evehicle custom1 custom2" speed="31.29" length="94.85" acceleration="1" shape="167.32,7459.77 141.69,7459.45 101.85,7459.37 72.20,7457.43">
            <param key="origId" value="123323666"/>
        </lane>
        <lane id="123323666#1-AddedOnRampEdge_1" index="1" allow="private emergency authority army vip passenger hov taxi bus coach delivery truck trailer motorcycle evehicle custom1 custom2" speed="31.29" length="94.85" acceleration="1" shape="167.36,7456.57 141.71,7456.25 101.96,7456.17 72.40,7454.24">
            <param key="origId" value="123323666"/>
        </lane>
        <lane id="123323666#1-AddedOnRampEdge_2" index="2" allow="private emergency authority army vip passenger hov taxi bus coach delivery truck trailer motorcycle evehicle custom1 custom2" speed="31.29" length="94.85" shape="167.40,7453.37 141.74,7453.05 102.06,7452.97 72.61,7451.04">
            <param key="origId" value="123323666"/>
        </lane>
        <lane id="123323666#1-AddedOnRampEdge_3" index="3" allow="private emergency authority army vip passenger hov taxi bus coach delivery truck trailer motorcycle evehicle custom1 custom2" speed="31.29" length="94.85" shape="167.44,7450.17 141.76,7449.85 102.17,7449.77 72.82,7447.85">
            <param key="origId" value="123323666"/>
        </lane>
        <lane id="123323666#1-AddedOnRampEdge_4" index="4" allow="private emergency authority army vip passenger hov taxi bus coach delivery truck trailer motorcycle evehicle custom1 custom2" speed="31.29" length="94.85" shape="167.48,7446.97 141.78,7446.65 102.28,7446.57 73.03,7444.66">
            <param key="origId" value="123323666"/>
        </lane>
        <param key="ref" value="M 14"/>
    </edge>