<?xml version="1.0" encoding="UTF-8"?>

<!-- generated on 2021-09-20 22:41:40 by Eclipse SUMO netedit Version 1.10.0
<configuration xmlns:xsi="http://www.w3.org/2001/XMLSchema-instance" xsi:noNamespaceSchemaLocation="http://sumo.dlr.de/xsd/netconvertConfiguration.xsd">

    <input>
        <sumo-net-file value="C:\Users\kusari\Documents\Python%20Projects\Simulation-software-architecture\sumo_gym\highway_route_files\highway-1.net.xml"/>
    </input>

    <output>
        <output-file value="C:\Users\kusari\Documents\Python%20Projects\Simulation-software-architecture\sumo_gym\highway_route_files\highway-1.net.xml"/>
    </output>

    <processing>
        <geometry.min-radius.fix.railways value="false"/>
        <geometry.max-grade.fix value="false"/>
        <offset.disable-normalization value="true"/>
        <lefthand value="false"/>
    </processing>

    <junctions>
        <no-turnarounds value="true"/>
        <junctions.corner-detail value="5"/>
        <junctions.limit-turn-speed value="5.5"/>
        <rectangular-lane-cut value="false"/>
    </junctions>

    <pedestrian>
        <walkingareas value="false"/>
    </pedestrian>

    <netedit>
        <route-files value="C:\Users\kusari\Documents\Python%20Projects\Simulation-software-architecture\sumo_gym\highway_route_files\single_vehicle.rou.xml"/>
    </netedit>

    <report>
        <aggregate-warnings value="5"/>
    </report>

</configuration>
-->

<routes xmlns:xsi="http://www.w3.org/2001/XMLSchema-instance" xsi:noNamespaceSchemaLocation="http://sumo.dlr.de/xsd/routes_file.xsd">
    <trip id="vehicle_0" depart="0.00" from="124433726" to="-102366" via="520996239 518877177 23217904 9146825 -102291 517170969 518455966"/>
</routes>
