<?xml version="1.0" encoding="UTF-8"?>

<!-- generated on 2022-02-11 10:10:25 by Eclipse SUMO netedit Version v1_10_0+0106-205bfb5748
<configuration xmlns:xsi="http://www.w3.org/2001/XMLSchema-instance" xsi:noNamespaceSchemaLocation="http://sumo.dlr.de/xsd/netconvertConfiguration.xsd">

    <output>
        <output-file value="/Users/pei/Dropbox%20(University%20of%20Michigan)/Simulation-software-architecture/sumo_gym/example.net.xml"/>
    </output>

    <processing>
        <offset.disable-normalization value="true"/>
    </processing>

    <junctions>
        <no-turnarounds value="true"/>
    </junctions>

    <report>
        <aggregate-warnings value="5"/>
    </report>

</configuration>
-->

<net version="1.9" junctionCornerDetail="5" limitTurnSpeed="5.50" xmlns:xsi="http://www.w3.org/2001/XMLSchema-instance" xsi:noNamespaceSchemaLocation="http://sumo.dlr.de/xsd/net_file.xsd">

    <location netOffset="0.00,0.00" convBoundary="-27.13,23.04,144.75,109.37" origBoundary="10000000000.00,10000000000.00,-10000000000.00,-10000000000.00" projParameter="!"/>

    <edge id=":gneJ0_0" function="internal">
        <lane id=":gneJ0_0_0" index="0" speed="4.08" length="4.58" shape="-27.74,72.01 -29.01,71.31 -29.44,70.59 -29.05,69.85 -27.82,69.08"/>
    </edge>
    <edge id=":gneJ1_0" function="internal">
        <lane id=":gneJ1_0_0" index="0" speed="4.02" length="1.69" shape="72.41,21.59 72.83,21.45 73.24,21.43 73.63,21.52 74.02,21.73"/>
    </edge>
    <edge id=":gneJ2_0" function="internal">
        <lane id=":gneJ2_0_0" index="0" speed="3.97" length="3.77" shape="145.67,71.97 146.50,72.74 146.74,73.45 146.38,74.11 145.43,74.73"/>
    </edge>
    <edge id=":gneJ3_0" function="internal">
        <lane id=":gneJ3_0_0" index="0" speed="4.16" length="1.32" shape="69.01,110.81 68.69,110.93 68.37,110.97 68.05,110.95 67.72,110.85"/>
    </edge>

    <edge id="gneE0" from="gneJ0" to="gneJ1" priority="-1">
        <lane id="gneE0_0" index="0" speed="13.89" length="110.91" shape="-27.82,69.08 72.41,21.59"/>
    </edge>
    <edge id="gneE1" from="gneJ1" to="gneJ2" priority="-1">
        <lane id="gneE1_0" index="0" speed="13.89" length="87.51" shape="74.02,21.73 145.67,71.97"/>
    </edge>
    <edge id="gneE2" from="gneJ2" to="gneJ3" priority="-1">
        <lane id="gneE2_0" index="0" speed="13.89" length="84.51" shape="145.43,74.73 69.01,110.81"/>
    </edge>
    <edge id="gneE3" from="gneJ3" to="gneJ0" priority="-1">
        <lane id="gneE3_0" index="0" speed="13.89" length="103.06" shape="67.72,110.85 -27.74,72.01"/>
    </edge>

    <junction id="gneJ0" type="priority" x="-27.13" y="70.53" incLanes="gneE3_0" intLanes=":gneJ0_0_0" shape="-28.34,73.49 -27.13,70.53 -28.50,67.63 -30.33,68.66 -31.41,69.67 -31.75,70.66 -31.35,71.62 -30.22,72.57">
        <request index="0" response="0" foes="0" cont="0"/>
    </junction>
    <junction id="gneJ1" type="priority" x="73.10" y="23.04" incLanes="gneE0_0" intLanes=":gneJ1_0_0" shape="73.10,23.04 74.94,20.42 73.90,19.92 73.37,19.82 72.83,19.82 72.29,19.94 71.73,20.15">
        <request index="0" response="0" foes="0" cont="0"/>
    </junction>
    <junction id="gneJ2" type="priority" x="144.75" y="73.28" incLanes="gneE1_0" intLanes=":gneJ2_0_0" shape="146.59,70.66 144.75,73.28 146.11,76.17 148.38,74.52 148.72,73.62 148.54,72.68 147.82,71.69">
        <request index="0" response="0" foes="0" cont="0"/>
    </junction>
    <junction id="gneJ3" type="priority" x="68.33" y="109.37" incLanes="gneE2_0" intLanes=":gneJ3_0_0" shape="69.69,112.26 68.33,109.37 67.12,112.33 67.99,112.56 68.41,112.58 68.84,112.54 69.27,112.43">
        <request index="0" response="0" foes="0" cont="0"/>
    </junction>

    <connection from="gneE0" to="gneE1" fromLane="0" toLane="0" via=":gneJ1_0_0" dir="l" state="M"/>
    <connection from="gneE1" to="gneE2" fromLane="0" toLane="0" via=":gneJ2_0_0" dir="l" state="M"/>
    <connection from="gneE2" to="gneE3" fromLane="0" toLane="0" via=":gneJ3_0_0" dir="l" state="M"/>
    <connection from="gneE3" to="gneE0" fromLane="0" toLane="0" via=":gneJ0_0_0" dir="l" state="M"/>

    <connection from=":gneJ0_0" to="gneE0" fromLane="0" toLane="0" dir="l" state="M"/>
    <connection from=":gneJ1_0" to="gneE1" fromLane="0" toLane="0" dir="l" state="M"/>
    <connection from=":gneJ2_0" to="gneE2" fromLane="0" toLane="0" dir="l" state="M"/>
    <connection from=":gneJ3_0" to="gneE3" fromLane="0" toLane="0" dir="l" state="M"/>

</net>
