<?xml version="1.0" encoding="UTF-8"?>

<!-- generated on 2022-02-11 10:10:49 by Eclipse SUMO netedit Version v1_10_0+0106-205bfb5748
<configuration xmlns:xsi="http://www.w3.org/2001/XMLSchema-instance" xsi:noNamespaceSchemaLocation="http://sumo.dlr.de/xsd/netconvertConfiguration.xsd">

    <output>
        <output-file value="/Users/pei/Dropbox%20(University%20of%20Michigan)/Simulation-software-architecture/sumo_gym/example.net.xml"/>
    </output>

    <processing>
        <offset.disable-normalization value="true"/>
    </processing>

    <junctions>
        <no-turnarounds value="true"/>
    </junctions>

    <netedit>
        <route-files value="/Users/pei/Dropbox%20(University%20of%20Michigan)/Simulation-software-architecture/sumo_gym/example.rou.xml"/>
    </netedit>

    <report>
        <aggregate-warnings value="5"/>
    </report>

</configuration>
-->

<routes xmlns:xsi="http://www.w3.org/2001/XMLSchema-instance" xsi:noNamespaceSchemaLocation="http://sumo.dlr.de/xsd/routes_file.xsd">
    <trip id="vehicle_0" depart="0.00" from="gneE0" to="gneE2" via="gneE1"/>
</routes>
