<?xml version="1.0" encoding="UTF-8"?>

<!-- generated on 2022-02-12 20:10:22 by Eclipse SUMO netedit Version v1_10_0+0106-205bfb5748
<configuration xmlns:xsi="http://www.w3.org/2001/XMLSchema-instance" xsi:noNamespaceSchemaLocation="http://sumo.dlr.de/xsd/netconvertConfiguration.xsd">

    <input>
        <sumo-net-file value="/Users/pei/Dropbox%20(University%20of%20Michigan)/Simulation-software-architecture/sumo_gym/loop.net.xml"/>
    </input>

    <output>
        <output-file value="/Users/pei/Dropbox%20(University%20of%20Michigan)/Simulation-software-architecture/sumo_gym/loop.net.xml"/>
    </output>

    <processing>
        <geometry.min-radius.fix.railways value="false"/>
        <geometry.max-grade.fix value="false"/>
        <offset.disable-normalization value="true"/>
        <lefthand value="false"/>
    </processing>

    <junctions>
        <no-turnarounds value="true"/>
        <junctions.corner-detail value="5"/>
        <junctions.limit-turn-speed value="5.5"/>
        <rectangular-lane-cut value="false"/>
    </junctions>

    <pedestrian>
        <walkingareas value="false"/>
    </pedestrian>

    <netedit>
        <route-files value="/Users/pei/Dropbox%20(University%20of%20Michigan)/Simulation-software-architecture/sumo_gym/loop.rou.xml"/>
    </netedit>

    <report>
        <aggregate-warnings value="5"/>
    </report>

</configuration>
-->

<routes xmlns:xsi="http://www.w3.org/2001/XMLSchema-instance" xsi:noNamespaceSchemaLocation="http://sumo.dlr.de/xsd/routes_file.xsd">
    <trip id="vehicle_0" depart="0.00" from="-101917" to="-101782" via="-101955 -101980 -101921 -101990 -101934 -101929 -101928 -101927 -101970 -101971 -101853 -101998 -101999 -101784 -101901 -101786 -101898 -101941 -101893 -102010 -101889 -101883 -102009 -102011 -101871 -101866 -101865 -101861 -101858 -101836 -101835 -101988 -101789 -101840 -101839 -101952 -101782"/>
</routes>
