<?xml version="1.0" encoding="UTF-8"?>

<!-- generated on 2022-02-14 10:16:07 by Eclipse SUMO netedit Version 1.10.0
<configuration xmlns:xsi="http://www.w3.org/2001/XMLSchema-instance" xsi:noNamespaceSchemaLocation="http://sumo.dlr.de/xsd/netconvertConfiguration.xsd">

    <input>
        <sumo-net-file value="C:\Users\peiliesg\Dropbox%20(University%20of%20Michigan)\Simulation-software-architecture\sumo_gym\loop.net.xml"/>
    </input>

    <output>
        <output-file value="C:\Users\peiliesg\Dropbox%20(University%20of%20Michigan)\Simulation-software-architecture\sumo_gym\loop.net.xml"/>
    </output>

    <processing>
        <geometry.min-radius.fix.railways value="false"/>
        <geometry.max-grade.fix value="false"/>
        <offset.disable-normalization value="true"/>
        <lefthand value="false"/>
    </processing>

    <junctions>
        <no-turnarounds value="true"/>
        <junctions.corner-detail value="5"/>
        <junctions.limit-turn-speed value="5.5"/>
        <rectangular-lane-cut value="false"/>
    </junctions>

    <pedestrian>
        <walkingareas value="false"/>
    </pedestrian>

    <report>
        <aggregate-warnings value="5"/>
    </report>

</configuration>
-->

<net version="1.9" junctionCornerDetail="5" limitTurnSpeed="5.50" xmlns:xsi="http://www.w3.org/2001/XMLSchema-instance" xsi:noNamespaceSchemaLocation="http://sumo.dlr.de/xsd/net_file.xsd">

    <location netOffset="-690446.77,-4725802.89" convBoundary="0.00,0.00,14790.14,17737.94" origBoundary="-84.672011,42.658436,-84.495284,42.817748" projParameter="+proj=utm +zone=16 +ellps=WGS84 +datum=WGS84 +units=m +no_defs"/>

    <type id="highway.bridleway" priority="1" numLanes="1" speed="2.78" allow="pedestrian" oneway="1" width="2.00"/>
    <type id="highway.bus_guideway" priority="1" numLanes="1" speed="27.78" allow="bus" oneway="1"/>
    <type id="highway.cycleway" priority="1" numLanes="1" speed="8.33" allow="bicycle" oneway="1" width="1.00"/>
    <type id="highway.footway" priority="1" numLanes="1" speed="2.78" allow="pedestrian" oneway="1" width="2.00"/>
    <type id="highway.ford" priority="1" numLanes="1" speed="2.78" allow="army" oneway="1"/>
    <type id="highway.living_street" priority="2" numLanes="1" speed="2.78" disallow="tram rail_urban rail rail_electric rail_fast ship" oneway="1"/>
    <type id="highway.motorway" priority="14" numLanes="2" speed="39.44" allow="private emergency authority army vip passenger hov taxi bus coach delivery truck trailer motorcycle evehicle custom1 custom2" oneway="1"/>
    <type id="highway.motorway_link" priority="9" numLanes="1" speed="22.22" allow="private emergency authority army vip passenger hov taxi bus coach delivery truck trailer motorcycle evehicle custom1 custom2" oneway="1"/>
    <type id="highway.path" priority="1" numLanes="1" speed="2.78" allow="pedestrian bicycle" oneway="1" width="2.00"/>
    <type id="highway.pedestrian" priority="1" numLanes="1" speed="2.78" allow="pedestrian" oneway="1" width="2.00"/>
    <type id="highway.primary" priority="12" numLanes="2" speed="27.78" disallow="tram rail_urban rail rail_electric rail_fast ship" oneway="1"/>
    <type id="highway.primary_link" priority="7" numLanes="1" speed="22.22" disallow="tram rail_urban rail rail_electric rail_fast ship" oneway="1"/>
    <type id="highway.raceway" priority="15" numLanes="2" speed="83.33" allow="vip" oneway="1"/>
    <type id="highway.residential" priority="3" numLanes="1" speed="13.89" disallow="tram rail_urban rail rail_electric rail_fast ship" oneway="1"/>
    <type id="highway.secondary" priority="11" numLanes="1" speed="27.78" disallow="tram rail_urban rail rail_electric rail_fast ship" oneway="1"/>
    <type id="highway.secondary_link" priority="6" numLanes="1" speed="22.22" disallow="tram rail_urban rail rail_electric rail_fast ship" oneway="1"/>
    <type id="highway.service" priority="1" numLanes="1" speed="5.56" allow="pedestrian delivery bicycle" oneway="1"/>
    <type id="highway.stairs" priority="1" numLanes="1" speed="1.39" allow="pedestrian" oneway="1" width="2.00"/>
    <type id="highway.step" priority="1" numLanes="1" speed="1.39" allow="pedestrian" oneway="1" width="2.00"/>
    <type id="highway.steps" priority="1" numLanes="1" speed="1.39" allow="pedestrian" oneway="1" width="2.00"/>
    <type id="highway.tertiary" priority="10" numLanes="1" speed="22.22" disallow="tram rail_urban rail rail_electric rail_fast ship" oneway="1"/>
    <type id="highway.tertiary_link" priority="5" numLanes="1" speed="22.22" disallow="tram rail_urban rail rail_electric rail_fast ship" oneway="1"/>
    <type id="highway.track" priority="1" numLanes="1" speed="5.56" allow="pedestrian motorcycle moped bicycle" oneway="1"/>
    <type id="highway.trunk" priority="13" numLanes="2" speed="27.78" disallow="pedestrian bicycle tram rail_urban rail rail_electric rail_fast ship" oneway="1"/>
    <type id="highway.trunk_link" priority="8" numLanes="1" speed="22.22" disallow="pedestrian bicycle tram rail_urban rail rail_electric rail_fast ship" oneway="1"/>
    <type id="highway.unclassified" priority="4" numLanes="1" speed="13.89" disallow="tram rail_urban rail rail_electric rail_fast ship" oneway="1"/>
    <type id="highway.unsurfaced" priority="1" numLanes="1" speed="8.33" disallow="tram rail_urban rail rail_electric rail_fast ship" oneway="1"/>
    <type id="railway.highspeed" priority="21" numLanes="1" speed="69.44" allow="rail_fast" oneway="1"/>
    <type id="railway.light_rail" priority="19" numLanes="1" speed="27.78" allow="rail_urban" oneway="1"/>
    <type id="railway.preserved" priority="16" numLanes="1" speed="27.78" allow="rail" oneway="1"/>
    <type id="railway.rail" priority="20" numLanes="1" speed="44.44" allow="rail" oneway="1"/>
    <type id="railway.subway" priority="18" numLanes="1" speed="27.78" allow="rail_urban" oneway="1"/>
    <type id="railway.tram" priority="17" numLanes="1" speed="13.89" allow="tram" oneway="1"/>

    <edge id=":-101753_0" function="internal">
        <lane id=":-101753_0_0" index="0" allow="private emergency authority army vip passenger hov taxi bus coach delivery truck trailer motorcycle evehicle custom1 custom2" speed="31.29" length="0.10" shape="13053.97,12435.28 13053.99,12435.20"/>
        <lane id=":-101753_0_1" index="1" allow="private emergency authority army vip passenger hov taxi bus coach delivery truck trailer motorcycle evehicle custom1 custom2" speed="31.29" length="0.10" shape="13050.91,12434.34 13050.89,12434.42"/>
    </edge>
    <edge id=":-101756_0" function="internal">
        <lane id=":-101756_0_0" index="0" allow="private emergency authority army vip passenger hov taxi bus coach delivery truck trailer motorcycle evehicle custom1 custom2" speed="31.29" length="0.30" shape="12996.88,12688.93 12996.82,12689.23"/>
        <lane id=":-101756_0_1" index="1" allow="private emergency authority army vip passenger hov taxi bus coach delivery truck trailer motorcycle evehicle custom1 custom2" speed="31.29" length="0.30" shape="12993.74,12688.33 12993.68,12688.63"/>
    </edge>
    <edge id=":-101757_0" function="internal">
        <lane id=":-101757_0_0" index="0" allow="private emergency authority army vip passenger hov taxi bus coach delivery truck trailer motorcycle evehicle custom1 custom2" speed="31.29" length="0.26" shape="485.45,3707.28 485.51,3706.98"/>
        <lane id=":-101757_0_1" index="1" allow="private emergency authority army vip passenger hov taxi bus coach delivery truck trailer motorcycle evehicle custom1 custom2" speed="31.29" length="0.26" shape="488.58,3707.90 488.63,3707.69"/>
    </edge>
    <edge id=":-101819_0" function="internal">
        <lane id=":-101819_0_0" index="0" allow="private emergency authority army vip passenger hov taxi bus coach delivery truck trailer motorcycle evehicle custom1 custom2" speed="31.29" length="0.29" shape="2526.11,976.65 2526.32,976.42"/>
        <lane id=":-101819_0_1" index="1" allow="private emergency authority army vip passenger hov taxi bus coach delivery truck trailer motorcycle evehicle custom1 custom2" speed="31.29" length="0.29" shape="2528.49,978.79 2528.67,978.59"/>
    </edge>
    <edge id=":-101885_0" function="internal">
        <lane id=":-101885_0_0" index="0" allow="private emergency authority army vip passenger hov taxi bus coach delivery truck trailer motorcycle evehicle custom1 custom2" speed="31.29" length="0.30" shape="2583.82,1073.97 2583.65,1074.20"/>
        <lane id=":-101885_0_1" index="1" allow="private emergency authority army vip passenger hov taxi bus coach delivery truck trailer motorcycle evehicle custom1 custom2" speed="31.29" length="0.30" shape="2581.28,1072.03 2581.09,1072.28"/>
    </edge>
    <edge id=":-101888_0" function="internal">
        <lane id=":-101888_0_0" index="0" allow="private emergency authority army vip passenger hov taxi bus coach delivery truck trailer motorcycle evehicle custom1 custom2" speed="31.29" length="0.29" shape="13792.13,7288.33 13791.92,7288.56"/>
        <lane id=":-101888_0_1" index="1" allow="private emergency authority army vip passenger hov taxi bus coach delivery truck trailer motorcycle evehicle custom1 custom2" speed="31.29" length="0.29" shape="13789.79,7286.16 13789.61,7286.35"/>
    </edge>
    <edge id=":-101897_0" function="internal">
        <lane id=":-101897_0_0" index="0" allow="private emergency authority army vip passenger hov taxi bus coach delivery truck trailer motorcycle evehicle custom1 custom2" speed="31.29" length="0.26" shape="13448.49,7599.65 13448.38,7599.81"/>
        <lane id=":-101897_0_1" index="1" allow="private emergency authority army vip passenger hov taxi bus coach delivery truck trailer motorcycle evehicle custom1 custom2" speed="31.29" length="0.26" shape="13445.84,7597.85 13445.66,7598.13"/>
    </edge>
    <edge id=":-101904_0" function="internal">
        <lane id=":-101904_0_0" index="0" allow="private emergency authority army vip passenger hov taxi bus coach delivery truck trailer motorcycle evehicle custom1 custom2" speed="31.29" length="0.30" shape="13372.80,8391.62 13372.80,8391.92"/>
        <lane id=":-101904_0_1" index="1" allow="private emergency authority army vip passenger hov taxi bus coach delivery truck trailer motorcycle evehicle custom1 custom2" speed="31.29" length="0.30" shape="13369.60,8391.55 13369.60,8391.83"/>
    </edge>
    <edge id=":-101906_0" function="internal">
        <lane id=":-101906_0_0" index="0" allow="private emergency authority army vip passenger hov taxi bus coach delivery truck trailer motorcycle evehicle custom1 custom2" speed="31.29" length="0.29" shape="13337.30,8389.57 13337.31,8389.26"/>
        <lane id=":-101906_0_1" index="1" allow="private emergency authority army vip passenger hov taxi bus coach delivery truck trailer motorcycle evehicle custom1 custom2" speed="31.29" length="0.29" shape="13340.50,8389.64 13340.50,8389.36"/>
    </edge>
    <edge id=":-101907_0" function="internal">
        <lane id=":-101907_0_0" index="0" allow="private emergency authority army vip passenger hov taxi bus coach delivery truck trailer motorcycle evehicle custom1 custom2" speed="31.29" length="0.21" shape="13019.09,12425.33 13019.18,12425.03"/>
        <lane id=":-101907_0_1" index="1" allow="private emergency authority army vip passenger hov taxi bus coach delivery truck trailer motorcycle evehicle custom1 custom2" speed="31.29" length="0.21" shape="13022.19,12426.13 13022.22,12426.03"/>
    </edge>
    <edge id=":-101999_0" function="internal">
        <lane id=":-101999_0_0" index="0" allow="private emergency authority army vip passenger hov taxi bus coach delivery truck trailer motorcycle evehicle custom1 custom2" speed="31.29" length="0.28" shape="366.71,11209.14 366.72,11209.10 366.72,11209.07 366.73,11209.04 366.73,11209.00"/>
        <lane id=":-101999_0_1" index="1" allow="private emergency authority army vip passenger hov taxi bus coach delivery truck trailer motorcycle evehicle custom1 custom2" speed="31.29" length="0.28" shape="369.86,11209.72 369.88,11209.60 369.89,11209.51 369.90,11209.43 369.92,11209.30"/>
    </edge>
    <edge id=":-102003_0" function="internal">
        <lane id=":-102003_0_0" index="0" allow="private emergency authority army vip passenger hov taxi bus coach delivery truck trailer motorcycle evehicle custom1 custom2" speed="31.29" length="0.29" shape="322.44,11780.94 322.41,11781.21"/>
        <lane id=":-102003_0_1" index="1" allow="private emergency authority army vip passenger hov taxi bus coach delivery truck trailer motorcycle evehicle custom1 custom2" speed="31.29" length="0.29" shape="319.28,11780.49 319.23,11780.80"/>
    </edge>
    <edge id=":-102006_0" function="internal">
        <lane id=":-102006_0_0" index="0" allow="private emergency authority army vip passenger hov taxi bus coach delivery truck trailer motorcycle evehicle custom1 custom2" speed="31.29" length="0.26" shape="234.57,12476.49 234.56,12476.67"/>
        <lane id=":-102006_0_1" index="1" allow="private emergency authority army vip passenger hov taxi bus coach delivery truck trailer motorcycle evehicle custom1 custom2" speed="31.29" length="0.26" shape="231.40,12476.10 231.36,12476.43"/>
    </edge>
    <edge id=":-102194_0" function="internal">
        <lane id=":-102194_0_0" index="0" allow="private emergency authority army vip passenger hov taxi bus coach delivery truck trailer motorcycle evehicle custom1 custom2" speed="31.29" length="0.28" shape="13838.86,7023.21 13838.95,7022.91"/>
        <lane id=":-102194_0_1" index="1" allow="private emergency authority army vip passenger hov taxi bus coach delivery truck trailer motorcycle evehicle custom1 custom2" speed="31.29" length="0.28" shape="13841.90,7024.20 13841.98,7023.96"/>
    </edge>
    <edge id=":-102198_0" function="internal">
        <lane id=":-102198_0_0" index="0" allow="private emergency authority army vip passenger hov taxi bus coach delivery truck trailer motorcycle evehicle custom1 custom2" speed="31.29" length="0.26" shape="13860.67,6932.33 13860.69,6932.14"/>
        <lane id=":-102198_0_1" index="1" allow="private emergency authority army vip passenger hov taxi bus coach delivery truck trailer motorcycle evehicle custom1 custom2" speed="31.29" length="0.26" shape="13863.84,6932.79 13863.87,6932.46"/>
    </edge>
    <edge id=":-102200_0" function="internal">
        <lane id=":-102200_0_0" index="0" allow="private emergency authority army vip passenger hov taxi bus coach delivery truck trailer motorcycle evehicle custom1 custom2" speed="31.29" length="0.26" shape="13865.19,6873.99 13865.19,6873.86"/>
        <lane id=":-102200_0_1" index="1" allow="private emergency authority army vip passenger hov taxi bus coach delivery truck trailer motorcycle evehicle custom1 custom2" speed="31.29" length="0.26" shape="13868.38,6874.17 13868.39,6873.79"/>
    </edge>
    <edge id=":-102201_0" function="internal">
        <lane id=":-102201_0_0" index="0" allow="private emergency authority army vip passenger hov taxi bus coach delivery truck trailer motorcycle evehicle custom1 custom2" speed="31.29" length="0.29" shape="13864.00,6820.93 13864.00,6820.89 13864.00,6820.86 13864.00,6820.83 13863.99,6820.79"/>
        <lane id=":-102201_0_1" index="1" allow="private emergency authority army vip passenger hov taxi bus coach delivery truck trailer motorcycle evehicle custom1 custom2" speed="31.29" length="0.29" shape="13867.20,6820.86 13867.20,6820.73 13867.20,6820.64 13867.19,6820.55 13867.17,6820.42"/>
    </edge>
    <edge id=":-102208_0" function="internal">
        <lane id=":-102208_0_0" index="0" allow="private emergency authority army vip passenger hov taxi bus coach delivery truck trailer motorcycle evehicle custom1 custom2" speed="31.29" length="0.25" shape="13910.40,7018.03 13910.40,7018.35"/>
        <lane id=":-102208_0_1" index="1" allow="private emergency authority army vip passenger hov taxi bus coach delivery truck trailer motorcycle evehicle custom1 custom2" speed="31.29" length="0.25" shape="13907.20,7018.06 13907.20,7018.24"/>
    </edge>
    <edge id=":-102212_0" function="internal">
        <lane id=":-102212_0_0" index="0" allow="private emergency authority army vip passenger hov taxi bus coach delivery truck trailer motorcycle evehicle custom1 custom2" speed="31.29" length="0.27" shape="13885.07,7148.00 13884.92,7148.38"/>
        <lane id=":-102212_0_1" index="1" allow="private emergency authority army vip passenger hov taxi bus coach delivery truck trailer motorcycle evehicle custom1 custom2" speed="31.29" length="0.27" shape="13882.06,7146.94 13882.01,7147.07"/>
    </edge>
    <edge id=":-102217_0" function="internal">
        <lane id=":-102217_0_0" index="0" allow="private emergency authority army vip passenger hov taxi bus coach delivery truck trailer motorcycle evehicle custom1 custom2" speed="31.29" length="0.30" shape="13893.24,6818.98 13893.27,6819.27"/>
        <lane id=":-102217_0_1" index="1" allow="private emergency authority army vip passenger hov taxi bus coach delivery truck trailer motorcycle evehicle custom1 custom2" speed="31.29" length="0.30" shape="13890.05,6819.30 13890.09,6819.61"/>
    </edge>
    <edge id=":-102219_0" function="internal">
        <lane id=":-102219_0_0" index="0" allow="private emergency authority army vip passenger hov taxi bus coach delivery truck trailer motorcycle evehicle custom1 custom2" speed="31.29" length="0.10" shape="13408.72,7682.06 13408.76,7681.98"/>
        <lane id=":-102219_0_1" index="1" allow="private emergency authority army vip passenger hov taxi bus coach delivery truck trailer motorcycle evehicle custom1 custom2" speed="31.29" length="0.10" shape="13405.78,7680.82 13405.74,7680.90"/>
    </edge>
    <edge id=":-102226_0" function="internal">
        <lane id=":-102226_0_0" index="0" allow="private emergency authority army vip passenger hov taxi bus coach delivery truck trailer motorcycle evehicle custom1 custom2" speed="31.29" length="0.30" shape="13381.06,8006.95 13381.06,8007.25"/>
        <lane id=":-102226_0_1" index="1" allow="private emergency authority army vip passenger hov taxi bus coach delivery truck trailer motorcycle evehicle custom1 custom2" speed="31.29" length="0.30" shape="13377.86,8006.89 13377.86,8007.19"/>
    </edge>
    <edge id=":-102229_0" function="internal">
        <lane id=":-102229_0_0" index="0" allow="private emergency authority army vip passenger hov taxi bus coach delivery truck trailer motorcycle evehicle custom1 custom2" speed="31.29" length="0.27" shape="13380.58,7648.67 13380.68,7648.38"/>
        <lane id=":-102229_0_1" index="1" allow="private emergency authority army vip passenger hov taxi bus coach delivery truck trailer motorcycle evehicle custom1 custom2" speed="31.29" length="0.27" shape="13383.62,7649.66 13383.69,7649.45"/>
    </edge>
    <edge id=":-102232_0" function="internal">
        <lane id=":-102232_0_0" index="0" allow="private emergency authority army vip passenger hov taxi bus coach delivery truck trailer motorcycle evehicle custom1 custom2" speed="31.29" length="0.30" shape="13406.59,7580.78 13406.71,7580.50"/>
        <lane id=":-102232_0_1" index="1" allow="private emergency authority army vip passenger hov taxi bus coach delivery truck trailer motorcycle evehicle custom1 custom2" speed="31.29" length="0.30" shape="13409.51,7582.07 13409.63,7581.81"/>
    </edge>
    <edge id=":-102244_0" function="internal">
        <lane id=":-102244_0_0" index="0" allow="private emergency authority army vip passenger hov taxi bus coach delivery truck trailer motorcycle evehicle custom1 custom2" speed="31.29" length="0.25" shape="13750.66,7191.42 13750.78,7191.28"/>
        <lane id=":-102244_0_1" index="1" allow="private emergency authority army vip passenger hov taxi bus coach delivery truck trailer motorcycle evehicle custom1 custom2" speed="31.29" length="0.25" shape="13753.07,7193.53 13753.28,7193.28"/>
    </edge>
    <edge id=":-102310_0" function="internal">
        <lane id=":-102310_0_0" index="0" allow="private emergency authority army vip passenger hov taxi bus coach delivery truck trailer motorcycle evehicle custom1 custom2" speed="31.29" length="0.29" shape="434.46,8870.31 434.46,8870.62"/>
        <lane id=":-102310_0_1" index="1" allow="private emergency authority army vip passenger hov taxi bus coach delivery truck trailer motorcycle evehicle custom1 custom2" speed="31.29" length="0.29" shape="431.26,8870.32 431.26,8870.59"/>
    </edge>
    <edge id=":-102311_0" function="internal">
        <lane id=":-102311_0_0" index="0" allow="private emergency authority army vip passenger hov taxi bus coach delivery truck trailer motorcycle evehicle custom1 custom2" speed="31.29" length="0.29" shape="405.42,8869.90 405.42,8869.64"/>
        <lane id=":-102311_0_1" index="1" allow="private emergency authority army vip passenger hov taxi bus coach delivery truck trailer motorcycle evehicle custom1 custom2" speed="31.29" length="0.29" shape="408.62,8869.91 408.62,8869.60"/>
    </edge>
    <edge id=":-102314_0" function="internal">
        <lane id=":-102314_0_0" index="0" allow="private emergency authority army vip passenger hov taxi bus coach delivery truck trailer motorcycle evehicle custom1 custom2" speed="31.29" length="0.30" shape="404.79,8123.77 404.79,8123.48"/>
        <lane id=":-102314_0_1" index="1" allow="private emergency authority army vip passenger hov taxi bus coach delivery truck trailer motorcycle evehicle custom1 custom2" speed="31.29" length="0.30" shape="407.99,8123.75 407.99,8123.44"/>
    </edge>
    <edge id=":-102316_0" function="internal">
        <lane id=":-102316_0_0" index="0" allow="private emergency authority army vip passenger hov taxi bus coach delivery truck trailer motorcycle evehicle custom1 custom2" speed="31.29" length="0.24" shape="13817.78,6013.24 13817.78,6012.94"/>
        <lane id=":-102316_0_1" index="1" allow="private emergency authority army vip passenger hov taxi bus coach delivery truck trailer motorcycle evehicle custom1 custom2" speed="31.29" length="0.24" shape="13820.98,6013.23 13820.98,6013.04"/>
    </edge>
    <edge id=":-102317_0" function="internal">
        <lane id=":-102317_0_0" index="0" allow="private emergency authority army vip passenger hov taxi bus coach delivery truck trailer motorcycle evehicle custom1 custom2" speed="31.29" length="0.25" shape="13842.32,5199.62 13842.33,5199.32"/>
        <lane id=":-102317_0_1" index="1" allow="private emergency authority army vip passenger hov taxi bus coach delivery truck trailer motorcycle evehicle custom1 custom2" speed="31.29" length="0.25" shape="13845.52,5199.71 13845.52,5199.52"/>
    </edge>
    <edge id=":-102318_0" function="internal">
        <lane id=":-102318_0_0" index="0" allow="private emergency authority army vip passenger hov taxi bus coach delivery truck trailer motorcycle evehicle custom1 custom2" speed="31.29" length="0.30" shape="13853.00,6011.84 13853.00,6012.14"/>
        <lane id=":-102318_0_1" index="1" allow="private emergency authority army vip passenger hov taxi bus coach delivery truck trailer motorcycle evehicle custom1 custom2" speed="31.29" length="0.30" shape="13849.80,6011.76 13849.80,6012.05"/>
    </edge>
    <edge id=":-102345_0" function="internal">
        <lane id=":-102345_0_0" index="0" allow="private emergency authority army vip passenger hov taxi bus coach delivery truck trailer motorcycle evehicle custom1 custom2" speed="31.29" length="0.26" shape="14263.62,2841.36 14263.76,2841.08"/>
        <lane id=":-102345_0_1" index="1" allow="private emergency authority army vip passenger hov taxi bus coach delivery truck trailer motorcycle evehicle custom1 custom2" speed="31.29" length="0.26" shape="14266.48,2842.80 14266.58,2842.60"/>
    </edge>
    <edge id=":-102347_0" function="internal">
        <lane id=":-102347_0_0" index="0" allow="private emergency authority army vip passenger hov taxi bus coach delivery truck trailer motorcycle evehicle custom1 custom2" speed="31.29" length="0.29" shape="13874.88,5209.88 13874.88,5210.14"/>
        <lane id=":-102347_0_1" index="1" allow="private emergency authority army vip passenger hov taxi bus coach delivery truck trailer motorcycle evehicle custom1 custom2" speed="31.29" length="0.29" shape="13871.69,5209.74 13871.68,5210.05"/>
    </edge>
    <edge id=":-102382_0" function="internal">
        <lane id=":-102382_0_0" index="0" allow="private emergency authority army vip passenger hov taxi bus coach delivery truck trailer motorcycle evehicle custom1 custom2" speed="31.29" length="0.27" shape="14382.87,2747.71 14382.71,2747.97"/>
        <lane id=":-102382_0_1" index="1" allow="private emergency authority army vip passenger hov taxi bus coach delivery truck trailer motorcycle evehicle custom1 custom2" speed="31.29" length="0.27" shape="14380.10,2746.10 14379.99,2746.29"/>
    </edge>
    <edge id=":-102383_0" function="internal">
        <lane id=":-102383_0_0" index="0" allow="private emergency authority army vip passenger hov taxi bus coach delivery truck trailer motorcycle evehicle custom1 custom2" speed="35.36" length="0.25" shape="14619.72,2334.47 14619.59,2334.74"/>
        <lane id=":-102383_0_1" index="1" allow="private emergency authority army vip passenger hov taxi bus coach delivery truck trailer motorcycle evehicle custom1 custom2" speed="35.36" length="0.25" shape="14616.82,2333.12 14616.73,2333.30"/>
    </edge>
    <edge id=":-102385_0" function="internal">
        <lane id=":-102385_0_0" index="0" allow="private emergency authority army vip passenger hov taxi bus coach delivery truck trailer motorcycle evehicle custom1 custom2" speed="6.13" length="6.57" shape="14789.14,1969.37 14790.35,1970.65 14790.97,1972.05 14791.00,1973.58 14790.44,1975.24"/>
        <lane id=":-102385_0_1" index="1" allow="private emergency authority army vip passenger hov taxi bus coach delivery truck trailer motorcycle evehicle custom1 custom2" speed="3.93" length="2.19" shape="14787.13,1971.87 14787.54,1972.30 14787.74,1972.76 14787.76,1973.27 14787.57,1973.83"/>
    </edge>
    <edge id=":-102457_0" function="internal">
        <lane id=":-102457_0_0" index="0" allow="private emergency authority army vip passenger hov taxi bus coach delivery truck trailer motorcycle evehicle custom1 custom2" speed="31.29" length="0.29" shape="13489.48,1197.33 13489.25,1197.20"/>
        <lane id=":-102457_0_1" index="1" allow="private emergency authority army vip passenger hov taxi bus coach delivery truck trailer motorcycle evehicle custom1 custom2" speed="31.29" length="0.29" shape="13491.13,1194.60 13490.86,1194.44"/>
    </edge>
    <edge id=":-102460_0" function="internal">
        <lane id=":-102460_0_0" index="0" allow="private emergency authority army vip passenger hov taxi bus coach delivery truck trailer motorcycle evehicle custom1 custom2" speed="31.29" length="0.24" shape="13514.14,1168.46 13514.41,1168.62"/>
        <lane id=":-102460_0_1" index="1" allow="private emergency authority army vip passenger hov taxi bus coach delivery truck trailer motorcycle evehicle custom1 custom2" speed="31.29" length="0.24" shape="13512.58,1171.26 13512.74,1171.35"/>
    </edge>
    <edge id=":-102547_0" function="internal">
        <lane id=":-102547_0_0" index="0" allow="private emergency authority army vip passenger hov taxi bus coach delivery truck trailer motorcycle evehicle custom1 custom2" speed="31.29" length="0.30" shape="12899.58,859.16 12899.84,859.27"/>
        <lane id=":-102547_0_1" index="1" allow="private emergency authority army vip passenger hov taxi bus coach delivery truck trailer motorcycle evehicle custom1 custom2" speed="31.29" length="0.30" shape="12898.33,862.11 12898.61,862.22"/>
    </edge>
    <edge id=":-102559_0" function="internal">
        <lane id=":-102559_0_0" index="0" allow="private emergency authority army vip passenger hov taxi bus coach delivery truck trailer motorcycle evehicle custom1 custom2" speed="31.29" length="0.30" shape="12888.50,891.63 12888.22,891.51"/>
        <lane id=":-102559_0_1" index="1" allow="private emergency authority army vip passenger hov taxi bus coach delivery truck trailer motorcycle evehicle custom1 custom2" speed="31.29" length="0.30" shape="12889.75,888.68 12889.49,888.57"/>
    </edge>
    <edge id=":-102562_0" function="internal">
        <lane id=":-102562_0_0" index="0" allow="private emergency authority army vip passenger hov taxi bus coach delivery truck trailer motorcycle evehicle custom1 custom2" speed="31.29" length="0.10" shape="12119.95,566.78 12119.95,566.78"/>
        <lane id=":-102562_0_1" index="1" allow="private emergency authority army vip passenger hov taxi bus coach delivery truck trailer motorcycle evehicle custom1 custom2" speed="31.29" length="0.10" shape="12121.17,563.82 12121.17,563.82"/>
    </edge>
    <edge id=":-102563_0" function="internal">
        <lane id=":-102563_0_0" index="0" allow="private emergency authority army vip passenger hov taxi bus coach delivery truck trailer motorcycle evehicle custom1 custom2" speed="31.29" length="0.28" shape="11782.92,426.94 11782.68,426.85"/>
        <lane id=":-102563_0_1" index="1" allow="private emergency authority army vip passenger hov taxi bus coach delivery truck trailer motorcycle evehicle custom1 custom2" speed="31.29" length="0.28" shape="11784.14,423.99 11783.85,423.87"/>
    </edge>
    <edge id=":-102565_0" function="internal">
        <lane id=":-102565_0_0" index="0" allow="private emergency authority army vip passenger hov taxi bus coach delivery truck trailer motorcycle evehicle custom1 custom2" speed="31.29" length="0.30" shape="12191.28,562.08 12191.56,562.20"/>
        <lane id=":-102565_0_1" index="1" allow="private emergency authority army vip passenger hov taxi bus coach delivery truck trailer motorcycle evehicle custom1 custom2" speed="31.29" length="0.30" shape="12190.06,565.04 12190.33,565.16"/>
    </edge>