<?xml version="1.0" encoding="UTF-8"?>

<!-- generated on 2021-09-01 14:43:05 by Eclipse SUMO netedit Version v1_10_0+0106-205bfb5748
<configuration xmlns:xsi="http://www.w3.org/2001/XMLSchema-instance" xsi:noNamespaceSchemaLocation="http://sumo.dlr.de/xsd/netconvertConfiguration.xsd">

    <input>
        <sumo-net-file value="/Users/pei/Documents/urban_scenario/orlando/urban.net.xml"/>
    </input>

    <output>
        <output-file value="/Users/pei/Documents/urban_scenario/orlando/urban.net.xml"/>
    </output>

    <processing>
        <geometry.min-radius.fix.railways value="false"/>
        <geometry.max-grade.fix value="false"/>
        <offset.disable-normalization value="true"/>
        <lefthand value="false"/>
    </processing>

    <junctions>
        <no-turnarounds value="true"/>
        <junctions.corner-detail value="5"/>
        <junctions.limit-turn-speed value="5.5"/>
        <rectangular-lane-cut value="false"/>
    </junctions>

    <pedestrian>
        <walkingareas value="false"/>
    </pedestrian>

    <report>
        <aggregate-warnings value="5"/>
    </report>

</configuration>
-->

<net version="1.9" junctionCornerDetail="5" limitTurnSpeed="5.50" xmlns:xsi="http://www.w3.org/2001/XMLSchema-instance" xsi:noNamespaceSchemaLocation="http://sumo.dlr.de/xsd/net_file.xsd">

    <location netOffset="-463134.25,-3157390.67" convBoundary="0.00,283.92,2273.78,1945.07" origBoundary="-81.376894,28.542838,-81.352321,28.560359" projParameter="+proj=utm +zone=17 +ellps=WGS84 +datum=WGS84 +units=m +no_defs"/>

    <type id="highway.bridleway" priority="1" numLanes="1" speed="2.78" allow="pedestrian" oneway="1" width="2.00"/>
    <type id="highway.bus_guideway" priority="1" numLanes="1" speed="27.78" allow="bus" oneway="1"/>
    <type id="highway.cycleway" priority="1" numLanes="1" speed="8.33" allow="bicycle" oneway="1" width="1.00"/>
    <type id="highway.footway" priority="1" numLanes="1" speed="2.78" allow="pedestrian" oneway="1" width="2.00"/>
    <type id="highway.ford" priority="1" numLanes="1" speed="2.78" allow="army" oneway="1"/>
    <type id="highway.living_street" priority="2" numLanes="1" speed="2.78" disallow="tram rail_urban rail rail_electric rail_fast ship" oneway="1"/>
    <type id="highway.motorway" priority="14" numLanes="2" speed="39.44" allow="private emergency authority army vip passenger hov taxi bus coach delivery truck trailer motorcycle evehicle custom1 custom2" oneway="1"/>
    <type id="highway.motorway_link" priority="9" numLanes="1" speed="22.22" allow="private emergency authority army vip passenger hov taxi bus coach delivery truck trailer motorcycle evehicle custom1 custom2" oneway="1"/>
    <type id="highway.path" priority="1" numLanes="1" speed="2.78" allow="pedestrian bicycle" oneway="1" width="2.00"/>
    <type id="highway.pedestrian" priority="1" numLanes="1" speed="2.78" allow="pedestrian" oneway="1" width="2.00"/>
    <type id="highway.primary" priority="12" numLanes="2" speed="27.78" disallow="tram rail_urban rail rail_electric rail_fast ship" oneway="1"/>
    <type id="highway.primary_link" priority="7" numLanes="1" speed="22.22" disallow="tram rail_urban rail rail_electric rail_fast ship" oneway="1"/>
    <type id="highway.raceway" priority="15" numLanes="2" speed="83.33" allow="vip" oneway="1"/>
    <type id="highway.residential" priority="3" numLanes="1" speed="13.89" disallow="tram rail_urban rail rail_electric rail_fast ship" oneway="1"/>
    <type id="highway.secondary" priority="11" numLanes="1" speed="27.78" disallow="tram rail_urban rail rail_electric rail_fast ship" oneway="1"/>
    <type id="highway.secondary_link" priority="6" numLanes="1" speed="22.22" disallow="tram rail_urban rail rail_electric rail_fast ship" oneway="1"/>
    <type id="highway.service" priority="1" numLanes="1" speed="5.56" allow="pedestrian delivery bicycle" oneway="1"/>
    <type id="highway.stairs" priority="1" numLanes="1" speed="1.39" allow="pedestrian" oneway="1" width="2.00"/>
    <type id="highway.step" priority="1" numLanes="1" speed="1.39" allow="pedestrian" oneway="1" width="2.00"/>
    <type id="highway.steps" priority="1" numLanes="1" speed="1.39" allow="pedestrian" oneway="1" width="2.00"/>
    <type id="highway.tertiary" priority="10" numLanes="1" speed="22.22" disallow="tram rail_urban rail rail_electric rail_fast ship" oneway="1"/>
    <type id="highway.tertiary_link" priority="5" numLanes="1" speed="22.22" disallow="tram rail_urban rail rail_electric rail_fast ship" oneway="1"/>
    <type id="highway.track" priority="1" numLanes="1" speed="5.56" allow="pedestrian motorcycle moped bicycle" oneway="1"/>
    <type id="highway.trunk" priority="13" numLanes="2" speed="27.78" disallow="pedestrian bicycle tram rail_urban rail rail_electric rail_fast ship" oneway="1"/>
    <type id="highway.trunk_link" priority="8" numLanes="1" speed="22.22" disallow="pedestrian bicycle tram rail_urban rail rail_electric rail_fast ship" oneway="1"/>
    <type id="highway.unclassified" priority="4" numLanes="1" speed="13.89" disallow="tram rail_urban rail rail_electric rail_fast ship" oneway="1"/>
    <type id="highway.unsurfaced" priority="1" numLanes="1" speed="8.33" disallow="tram rail_urban rail rail_electric rail_fast ship" oneway="1"/>
    <type id="railway.highspeed" priority="21" numLanes="1" speed="69.44" allow="rail_fast" oneway="1"/>
    <type id="railway.light_rail" priority="19" numLanes="1" speed="27.78" allow="rail_urban" oneway="1"/>
    <type id="railway.preserved" priority="16" numLanes="1" speed="27.78" allow="rail" oneway="1"/>
    <type id="railway.rail" priority="20" numLanes="1" speed="44.44" allow="rail" oneway="1"/>
    <type id="railway.subway" priority="18" numLanes="1" speed="27.78" allow="rail_urban" oneway="1"/>
    <type id="railway.tram" priority="17" numLanes="1" speed="13.89" allow="tram" oneway="1"/>

    <edge id=":1201200223_0" function="internal">
        <lane id=":1201200223_0_0" index="0" disallow="tram rail_urban rail rail_electric rail_fast ship" speed="3.65" length="4.67" shape="1622.38,1234.31 1621.56,1235.50 1620.76,1235.89 1619.96,1235.48 1619.18,1234.27"/>
    </edge>
    <edge id=":559373704_0" function="internal">
        <lane id=":559373704_0_0" index="0" disallow="tram rail_urban rail rail_electric rail_fast ship" speed="3.65" length="4.67" shape="312.16,1945.06 311.37,1946.27 310.57,1946.67 309.77,1946.27 308.96,1945.08"/>
    </edge>
    <edge id=":969011223_0" function="internal">
        <lane id=":969011223_0_0" index="0" disallow="pedestrian bicycle tram rail_urban rail rail_electric rail_fast ship" speed="3.65" length="4.67" shape="2273.78,1139.77 2274.98,1140.57 2275.38,1141.37 2274.98,1142.17 2273.78,1142.97"/>
    </edge>
    <edge id=":99475166_0" function="internal">
        <lane id=":99475166_0_0" index="0" disallow="tram rail_urban rail rail_electric rail_fast ship" speed="7.68" length="11.46" shape="22.91,527.54 19.28,527.86 16.56,528.85 14.76,530.50 13.88,532.82"/>
        <lane id=":99475166_0_1" index="1" disallow="tram rail_urban rail rail_electric rail_fast ship" speed="8.44" length="14.04" shape="22.91,527.54 17.86,527.83 14.15,528.72 11.77,530.22 10.72,532.32"/>
        <lane id=":99475166_0_2" index="2" disallow="tram rail_urban rail rail_electric rail_fast ship" speed="9.18" length="16.74" shape="22.91,527.54 16.45,527.79 11.74,528.59 8.78,529.93 7.56,531.81"/>
    </edge>
    <edge id=":99475166_3" function="internal">
        <lane id=":99475166_3_0" index="0" disallow="tram rail_urban rail rail_electric rail_fast ship" speed="3.65" length="2.55" shape="22.91,527.54 21.71,526.74 21.32,525.94 21.41,525.75"/>
    </edge>
    <edge id=":99475166_8" function="internal">
        <lane id=":99475166_8_0" index="0" disallow="tram rail_urban rail rail_electric rail_fast ship" speed="3.65" length="2.13" shape="21.41,525.75 21.72,525.14 22.92,524.34"/>
    </edge>
    <edge id=":99475166_4" function="internal">
        <lane id=":99475166_4_0" index="0" disallow="tram rail_urban rail rail_electric rail_fast ship" speed="5.70" length="9.21" shape="19.42,518.45 18.45,521.02 18.71,522.86 20.20,523.97 22.92,524.34"/>
    </edge>
    <edge id=":99475166_5" function="internal">
        <lane id=":99475166_5_0" index="0" disallow="tram rail_urban rail rail_electric rail_fast ship" speed="12.29" length="16.63" shape="19.42,518.45 17.18,522.48 15.73,525.32 14.74,528.32 13.88,532.82"/>
        <lane id=":99475166_5_1" index="1" disallow="tram rail_urban rail rail_electric rail_fast ship" speed="12.29" length="16.63" shape="16.61,516.92 14.22,521.24 12.68,524.29 11.64,527.50 10.72,532.32"/>
        <lane id=":99475166_5_2" index="2" disallow="tram rail_urban rail rail_electric rail_fast ship" speed="12.29" length="16.63" shape="13.80,515.39 11.26,520.00 9.63,523.25 8.53,526.68 7.56,531.81"/>
    </edge>
    <edge id=":99475173_0" function="internal">
        <lane id=":99475173_0_0" index="0" disallow="pedestrian bicycle tram rail_urban rail rail_electric rail_fast ship" speed="6.44" length="9.03" shape="10.03,1149.88 7.57,1150.23 5.84,1151.29 4.83,1153.06 4.56,1155.53"/>
        <lane id=":99475173_0_1" index="1" disallow="pedestrian bicycle tram rail_urban rail rail_electric rail_fast ship" speed="7.95" length="14.31" shape="10.02,1146.68 6.13,1147.24 3.39,1148.92 1.80,1151.72 1.36,1155.63"/>
    </edge>
    <edge id=":99475173_2" function="internal">
        <lane id=":99475173_2_0" index="0" disallow="pedestrian bicycle tram rail_urban rail rail_electric rail_fast ship" speed="6.51" length="9.12" shape="4.34,1134.67 4.68,1137.12 5.73,1138.88 7.51,1139.93 10.01,1140.28"/>
    </edge>
    <edge id=":99475173_3" function="internal">
        <lane id=":99475173_3_0" index="0" disallow="tram rail_urban rail rail_electric rail_fast ship" speed="13.41" length="21.00" shape="4.34,1134.67 4.56,1155.53"/>
        <lane id=":99475173_3_1" index="1" disallow="tram rail_urban rail rail_electric rail_fast ship" speed="13.41" length="21.00" shape="1.14,1134.63 1.36,1155.63"/>
        <lane id=":99475173_3_2" index="2" disallow="tram rail_urban rail rail_electric rail_fast ship" speed="13.41" length="21.00" shape="-2.06,1134.60 -1.84,1155.73"/>
    </edge>
    <edge id=":99488102_0" function="internal">
        <lane id=":99488102_0_0" index="0" disallow="tram rail_urban rail rail_electric rail_fast ship" speed="6.51" length="9.04" shape="1232.08,332.21 1229.63,332.54 1227.87,333.58 1226.81,335.32 1226.44,337.78"/>
    </edge>
    <edge id=":99488102_1" function="internal">
        <lane id=":99488102_1_0" index="0" disallow="tram rail_urban rail rail_electric rail_fast ship" speed="15.65" length="20.81" shape="1232.08,332.21 1211.28,332.07"/>
        <lane id=":99488102_1_1" index="1" disallow="tram rail_urban rail rail_electric rail_fast ship" speed="15.65" length="20.81" shape="1232.11,329.01 1211.30,328.87"/>
    </edge>
    <edge id=":99488102_3" function="internal">
        <lane id=":99488102_3_0" index="0" disallow="tram rail_urban rail rail_electric rail_fast ship" speed="15.65" length="20.82" shape="1211.34,322.47 1232.15,322.61"/>
        <lane id=":99488102_3_1" index="1" disallow="tram rail_urban rail rail_electric rail_fast ship" speed="15.65" length="20.82" shape="1211.32,325.67 1232.13,325.81"/>
    </edge>
    <edge id=":99488102_5" function="internal">
        <lane id=":99488102_5_0" index="0" disallow="tram rail_urban rail rail_electric rail_fast ship" speed="9.84" length="8.69" shape="1211.32,325.67 1217.97,326.46 1219.77,327.33"/>
    </edge>
    <edge id=":99488102_8" function="internal">
        <lane id=":99488102_8_0" index="0" disallow="tram rail_urban rail rail_electric rail_fast ship" speed="9.84" length="13.32" shape="1219.77,327.33 1222.71,328.74 1225.53,332.51 1226.44,337.78"/>
    </edge>
    <edge id=":99488102_6" function="internal">
        <lane id=":99488102_6_0" index="0" disallow="tram rail_urban rail rail_electric rail_fast ship" speed="6.50" length="9.03" shape="1216.84,337.71 1216.51,335.25 1215.47,333.50 1213.73,332.44 1211.28,332.07"/>
    </edge>
    <edge id=":99488102_7" function="internal">
        <lane id=":99488102_7_0" index="0" disallow="tram rail_urban rail rail_electric rail_fast ship" speed="9.26" length="19.36" shape="1220.04,337.73 1220.83,332.48 1223.11,328.74 1226.88,326.52 1232.13,325.81"/>
    </edge>
    <edge id=":99536759_0" function="internal">
        <lane id=":99536759_0_0" index="0" disallow="tram rail_urban rail rail_electric rail_fast ship" speed="3.65" length="4.67" shape="2033.52,335.53 2034.70,336.35 2035.09,337.16 2034.68,337.95 2033.46,338.73"/>
    </edge>
    <edge id=":99545626_0" function="internal">
        <lane id=":99545626_0_0" index="0" disallow="pedestrian bicycle tram rail_urban rail rail_electric rail_fast ship" speed="6.57" length="9.15" shape="2033.23,1146.21 2030.74,1146.54 2028.95,1147.59 2027.86,1149.35 2027.47,1151.81"/>
    </edge>
    <edge id=":99545626_1" function="internal">
        <lane id=":99545626_1_0" index="0" disallow="pedestrian bicycle tram rail_urban rail rail_electric rail_fast ship" speed="22.35" length="14.49" shape="2033.23,1146.21 2018.74,1146.11"/>
        <lane id=":99545626_1_1" index="1" disallow="pedestrian bicycle tram rail_urban rail rail_electric rail_fast ship" speed="22.35" length="14.49" shape="2033.25,1143.01 2018.76,1142.91"/>
    </edge>
    <edge id=":99545626_3" function="internal">
        <lane id=":99545626_3_0" index="0" disallow="pedestrian bicycle tram rail_urban rail rail_electric rail_fast ship" speed="8.66" length="5.28" shape="2033.25,1143.01 2029.39,1142.23 2028.36,1141.37"/>
    </edge>
    <edge id=":99545626_14" function="internal">
        <lane id=":99545626_14_0" index="0" disallow="pedestrian bicycle tram rail_urban rail rail_electric rail_fast ship" speed="8.66" length="11.60" shape="2028.36,1141.37 2026.66,1139.96 2025.04,1136.19 2024.55,1130.93"/>
    </edge>
    <edge id=":99545626_4" function="internal">
        <lane id=":99545626_4_0" index="0" disallow="pedestrian bicycle tram rail_urban rail rail_electric rail_fast ship" speed="6.50" length="9.03" shape="2027.75,1130.96 2028.07,1133.42 2029.10,1135.18 2030.84,1136.24 2033.29,1136.61"/>
    </edge>
    <edge id=":99545626_5" function="internal">
        <lane id=":99545626_5_0" index="0" disallow="tram rail_urban rail rail_electric rail_fast ship" speed="12.29" length="20.85" shape="2027.75,1130.96 2027.47,1151.81"/>
    </edge>
    <edge id=":99545626_6" function="internal">
        <lane id=":99545626_6_0" index="0" disallow="pedestrian bicycle tram rail_urban rail rail_electric rail_fast ship" speed="8.70" length="7.92" shape="2027.75,1130.96 2027.14,1136.21 2026.05,1138.61"/>
    </edge>
    <edge id=":99545626_15" function="internal">
        <lane id=":99545626_15_0" index="0" disallow="pedestrian bicycle tram rail_urban rail rail_electric rail_fast ship" speed="8.70" length="9.00" shape="2026.05,1138.61 2025.43,1139.95 2022.64,1142.19 2018.76,1142.91"/>
    </edge>
    <edge id=":99545626_7" function="internal">
        <lane id=":99545626_7_0" index="0" disallow="pedestrian bicycle tram rail_urban rail rail_electric rail_fast ship" speed="6.55" length="9.13" shape="2018.80,1136.51 2021.29,1136.18 2023.08,1135.13 2024.17,1133.38 2024.55,1130.93"/>
    </edge>
    <edge id=":99545626_8" function="internal">
        <lane id=":99545626_8_0" index="0" disallow="pedestrian bicycle tram rail_urban rail rail_electric rail_fast ship" speed="22.35" length="14.49" shape="2018.80,1136.51 2033.29,1136.61"/>
        <lane id=":99545626_8_1" index="1" disallow="pedestrian bicycle tram rail_urban rail rail_electric rail_fast ship" speed="22.35" length="14.49" shape="2018.78,1139.71 2033.27,1139.81"/>
    </edge>
    <edge id=":99545626_10" function="internal">
        <lane id=":99545626_10_0" index="0" disallow="pedestrian bicycle tram rail_urban rail rail_electric rail_fast ship" speed="8.66" length="5.28" shape="2018.78,1139.71 2022.65,1140.49 2023.68,1141.34"/>
    </edge>
    <edge id=":99545626_16" function="internal">
        <lane id=":99545626_16_0" index="0" disallow="pedestrian bicycle tram rail_urban rail rail_electric rail_fast ship" speed="8.66" length="11.62" shape="2023.68,1141.34 2025.39,1142.77 2027.00,1146.54 2027.47,1151.81"/>
    </edge>
    <edge id=":99545626_11" function="internal">
        <lane id=":99545626_11_0" index="0" disallow="pedestrian bicycle tram rail_urban rail rail_electric rail_fast ship" speed="6.49" length="9.03" shape="2024.27,1151.76 2023.96,1149.30 2022.93,1147.54 2021.19,1146.48 2018.74,1146.11"/>
    </edge>
    <edge id=":99545626_12" function="internal">
        <lane id=":99545626_12_0" index="0" disallow="tram rail_urban rail rail_electric rail_fast ship" speed="12.29" length="20.84" shape="2024.27,1151.76 2024.55,1130.93"/>
    </edge>
    <edge id=":99545626_13" function="internal">
        <lane id=":99545626_13_0" index="0" disallow="pedestrian bicycle tram rail_urban rail rail_electric rail_fast ship" speed="8.72" length="7.87" shape="2024.27,1151.76 2024.90,1146.51 2025.97,1144.17"/>
    </edge>
    <edge id=":99545626_17" function="internal">
        <lane id=":99545626_17_0" index="0" disallow="pedestrian bicycle tram rail_urban rail rail_electric rail_fast ship" speed="8.72" length="9.05" shape="2025.97,1144.17 2026.61,1142.77 2029.40,1140.53 2033.27,1139.81"/>
    </edge>
    <edge id=":99545629_0" function="internal">
        <lane id=":99545629_0_0" index="0" disallow="pedestrian bicycle tram rail_urban rail rail_electric rail_fast ship" speed="6.53" length="9.11" shape="1629.38,1143.09 1626.93,1143.42 1625.16,1144.46 1624.09,1146.23 1623.70,1148.72"/>
    </edge>
    <edge id=":99545629_1" function="internal">
        <lane id=":99545629_1_0" index="0" disallow="pedestrian bicycle tram rail_urban rail rail_electric rail_fast ship" speed="22.35" length="14.49" shape="1629.38,1143.09 1614.94,1143.11"/>
        <lane id=":99545629_1_1" index="1" disallow="pedestrian bicycle tram rail_urban rail rail_electric rail_fast ship" speed="22.35" length="14.49" shape="1629.42,1139.89 1614.89,1139.91"/>
    </edge>
    <edge id=":99545629_3" function="internal">
        <lane id=":99545629_3_0" index="0" disallow="pedestrian bicycle tram rail_urban rail rail_electric rail_fast ship" speed="8.70" length="5.17" shape="1629.42,1139.89 1625.59,1139.10 1624.63,1138.30"/>
    </edge>
    <edge id=":99545629_14" function="internal">
        <lane id=":99545629_14_0" index="0" disallow="pedestrian bicycle tram rail_urban rail rail_electric rail_fast ship" speed="8.70" length="11.67" shape="1624.63,1138.30 1622.85,1136.82 1621.22,1133.06 1620.70,1127.82"/>
    </edge>
    <edge id=":99545629_4" function="internal">
        <lane id=":99545629_4_0" index="0" disallow="pedestrian bicycle tram rail_urban rail rail_electric rail_fast ship" speed="6.54" length="9.07" shape="1623.90,1127.83 1624.24,1130.28 1625.29,1132.04 1627.04,1133.11 1629.51,1133.50"/>
    </edge>
    <edge id=":99545629_5" function="internal">
        <lane id=":99545629_5_0" index="0" disallow="tram rail_urban rail rail_electric rail_fast ship" speed="13.41" length="20.88" shape="1623.90,1127.83 1623.70,1148.72"/>
    </edge>
    <edge id=":99545629_6" function="internal">
        <lane id=":99545629_6_0" index="0" disallow="pedestrian bicycle tram rail_urban rail rail_electric rail_fast ship" speed="8.77" length="7.91" shape="1623.90,1127.83 1623.31,1133.07 1622.23,1135.48"/>
    </edge>
    <edge id=":99545629_15" function="internal">
        <lane id=":99545629_15_0" index="0" disallow="pedestrian bicycle tram rail_urban rail rail_electric rail_fast ship" speed="8.77" length="9.10" shape="1622.23,1135.48 1621.62,1136.82 1618.81,1139.10 1614.89,1139.91"/>
    </edge>
    <edge id=":99545629_7" function="internal">
        <lane id=":99545629_7_0" index="0" disallow="pedestrian bicycle tram rail_urban rail rail_electric rail_fast ship" speed="6.64" length="9.30" shape="1614.80,1133.51 1617.37,1133.12 1619.21,1132.04 1620.32,1130.28 1620.70,1127.82"/>
    </edge>
    <edge id=":99545629_8" function="internal">
        <lane id=":99545629_8_0" index="0" disallow="pedestrian bicycle tram rail_urban rail rail_electric rail_fast ship" speed="22.35" length="14.67" shape="1614.80,1133.51 1629.51,1133.50"/>
        <lane id=":99545629_8_1" index="1" disallow="pedestrian bicycle tram rail_urban rail rail_electric rail_fast ship" speed="22.35" length="14.67" shape="1614.84,1136.71 1629.47,1136.69"/>
    </edge>
    <edge id=":99545629_10" function="internal">
        <lane id=":99545629_10_0" index="0" disallow="pedestrian bicycle tram rail_urban rail rail_electric rail_fast ship" speed="8.62" length="5.43" shape="1614.84,1136.71 1618.78,1137.41 1619.90,1138.30"/>
    </edge>
    <edge id=":99545629_16" function="internal">
        <lane id=":99545629_16_0" index="0" disallow="pedestrian bicycle tram rail_urban rail rail_electric rail_fast ship" speed="8.62" length="11.58" shape="1619.90,1138.30 1621.57,1139.64 1623.21,1143.41 1623.70,1148.72"/>
    </edge>
    <edge id=":99545629_11" function="internal">
        <lane id=":99545629_11_0" index="0" disallow="pedestrian bicycle tram rail_urban rail rail_electric rail_fast ship" speed="6.45" length="9.03" shape="1620.50,1148.67 1620.19,1146.21 1619.15,1144.46 1617.40,1143.42 1614.94,1143.11"/>
    </edge>
    <edge id=":99545629_12" function="internal">
        <lane id=":99545629_12_0" index="0" disallow="tram rail_urban rail rail_electric rail_fast ship" speed="13.41" length="20.85" shape="1620.50,1148.67 1620.70,1127.82"/>
    </edge>
    <edge id=":99545629_13" function="internal">
        <lane id=":99545629_13_0" index="0" disallow="pedestrian bicycle tram rail_urban rail rail_electric rail_fast ship" speed="8.69" length="7.86" shape="1620.50,1148.67 1621.13,1143.39 1622.17,1141.08"/>
    </edge>
    <edge id=":99545629_17" function="internal">
        <lane id=":99545629_17_0" index="0" disallow="pedestrian bicycle tram rail_urban rail rail_electric rail_fast ship" speed="8.69" length="9.07" shape="1622.17,1141.08 1622.83,1139.63 1625.61,1137.40 1629.47,1136.69"/>
    </edge>
    <edge id=":99545634_0" function="internal">
        <lane id=":99545634_0_0" index="0" disallow="pedestrian bicycle tram rail_urban rail rail_electric rail_fast ship" speed="6.49" length="9.03" shape="1211.72,1154.01 1211.32,1151.56 1210.24,1149.83 1208.47,1148.82 1206.01,1148.53"/>
    </edge>
    <edge id=":99545634_1" function="internal">
        <lane id=":99545634_1_0" index="0" disallow="tram rail_urban rail rail_electric rail_fast ship" speed="14.53" length="21.00" shape="1211.72,1154.01 1211.56,1132.97"/>
        <lane id=":99545634_1_1" index="1" disallow="tram rail_urban rail rail_electric rail_fast ship" speed="14.53" length="21.00" shape="1214.92,1153.95 1214.76,1132.98"/>
    </edge>
    <edge id=":99545634_3" function="internal">
        <lane id=":99545634_3_0" index="0" disallow="pedestrian bicycle tram rail_urban rail rail_electric rail_fast ship" speed="9.26" length="7.09" shape="1214.92,1153.95 1215.58,1148.67 1216.47,1147.14"/>
    </edge>
    <edge id=":99545634_15" function="internal">
        <lane id=":99545634_15_0" index="0" disallow="pedestrian bicycle tram rail_urban rail rail_electric rail_fast ship" speed="9.26" length="12.35" shape="1216.47,1147.14 1217.78,1144.88 1221.52,1142.57 1226.80,1141.76"/>
    </edge>
    <edge id=":99545634_4" function="internal">
        <lane id=":99545634_4_0" index="0" disallow="pedestrian bicycle tram rail_urban rail rail_electric rail_fast ship" speed="6.51" length="9.08" shape="1226.88,1148.16 1224.41,1148.54 1222.66,1149.61 1221.63,1151.38 1221.32,1153.83"/>
    </edge>
    <edge id=":99545634_5" function="internal">
        <lane id=":99545634_5_0" index="0" disallow="pedestrian bicycle tram rail_urban rail rail_electric rail_fast ship" speed="22.35" length="20.89" shape="1226.88,1148.16 1206.01,1148.53"/>
        <lane id=":99545634_5_1" index="1" disallow="pedestrian bicycle tram rail_urban rail rail_electric rail_fast ship" speed="22.35" length="20.89" shape="1226.84,1144.96 1205.93,1145.33"/>
    </edge>
    <edge id=":99545634_7" function="internal">
        <lane id=":99545634_7_0" index="0" disallow="pedestrian bicycle tram rail_urban rail rail_electric rail_fast ship" speed="6.47" length="9.04" shape="1221.16,1133.00 1221.50,1135.46 1222.55,1137.20 1224.30,1138.24 1226.77,1138.56"/>
    </edge>
    <edge id=":99545634_8" function="internal">
        <lane id=":99545634_8_0" index="0" disallow="tram rail_urban rail rail_electric rail_fast ship" speed="14.53" length="20.87" shape="1221.16,1133.00 1221.32,1153.83"/>
        <lane id=":99545634_8_1" index="1" disallow="tram rail_urban rail rail_electric rail_fast ship" speed="14.53" length="20.87" shape="1217.96,1132.99 1218.12,1153.89"/>
    </edge>
    <edge id=":99545634_10" function="internal">
        <lane id=":99545634_10_0" index="0" disallow="pedestrian bicycle tram rail_urban rail rail_electric rail_fast ship" speed="9.40" length="6.86" shape="1217.96,1132.99 1217.18,1138.28 1216.41,1139.58"/>
    </edge>
    <edge id=":99545634_16" function="internal">
        <lane id=":99545634_16_0" index="0" disallow="pedestrian bicycle tram rail_urban rail rail_electric rail_fast ship" speed="9.40" length="12.67" shape="1216.41,1139.58 1214.91,1142.10 1211.16,1144.45 1205.93,1145.33"/>
    </edge>
    <edge id=":99545634_11" function="internal">
        <lane id=":99545634_11_0" index="0" disallow="pedestrian bicycle tram rail_urban rail rail_electric rail_fast ship" speed="6.70" length="9.41" shape="1205.78,1138.93 1208.29,1138.51 1210.10,1137.37 1211.19,1135.53 1211.56,1132.97"/>
    </edge>
    <edge id=":99545634_12" function="internal">
        <lane id=":99545634_12_0" index="0" disallow="pedestrian bicycle tram rail_urban rail rail_electric rail_fast ship" speed="22.35" length="21.00" shape="1205.78,1138.93 1226.77,1138.56"/>
    </edge>
    <edge id=":99545634_13" function="internal">
        <lane id=":99545634_13_0" index="0" disallow="pedestrian bicycle tram rail_urban rail rail_electric rail_fast ship" speed="9.25" length="19.40" shape="1205.85,1142.13 1211.14,1142.76 1214.94,1144.93 1217.27,1148.64 1218.12,1153.89"/>
    </edge>
    <edge id=":99545634_14" function="internal">
        <lane id=":99545634_14_0" index="0" disallow="pedestrian bicycle tram rail_urban rail rail_electric rail_fast ship" speed="3.65" length="4.67" shape="1205.85,1142.13 1207.07,1142.90 1207.49,1143.69 1207.11,1144.50 1205.93,1145.33"/>
    </edge>
    <edge id=":99545648_0" function="internal">
        <lane id=":99545648_0_0" index="0" disallow="pedestrian bicycle tram rail_urban rail rail_electric rail_fast ship" speed="6.49" length="9.04" shape="303.46,1154.21 303.10,1151.76 302.04,1150.01 300.28,1148.99 297.82,1148.67"/>
    </edge>
    <edge id=":99545648_1" function="internal">
        <lane id=":99545648_1_0" index="0" disallow="pedestrian bicycle tram rail_urban rail rail_electric rail_fast ship" speed="8.65" length="16.92" shape="303.46,1154.21 303.99,1148.94 305.64,1145.18 308.41,1142.94 312.31,1142.22"/>
    </edge>
    <edge id=":99545648_2" function="internal">
        <lane id=":99545648_2_0" index="0" disallow="pedestrian bicycle tram rail_urban rail rail_electric rail_fast ship" speed="6.48" length="9.03" shape="312.26,1148.62 309.80,1148.95 308.05,1149.99 307.00,1151.74 306.66,1154.19"/>
    </edge>
    <edge id=":99545648_3" function="internal">
        <lane id=":99545648_3_0" index="0" disallow="pedestrian bicycle tram rail_urban rail rail_electric rail_fast ship" speed="22.35" length="14.47" shape="312.26,1148.62 297.82,1148.67"/>
        <lane id=":99545648_3_1" index="1" disallow="pedestrian bicycle tram rail_urban rail rail_electric rail_fast ship" speed="22.35" length="14.47" shape="312.28,1145.42 297.77,1145.47"/>
    </edge>
    <edge id=":99545648_5" function="internal">
        <lane id=":99545648_5_0" index="0" disallow="pedestrian bicycle tram rail_urban rail rail_electric rail_fast ship" speed="22.35" length="14.63" shape="297.67,1139.07 312.33,1139.02"/>
        <lane id=":99545648_5_1" index="1" disallow="pedestrian bicycle tram rail_urban rail rail_electric rail_fast ship" speed="22.35" length="14.63" shape="297.72,1142.27 312.31,1142.22"/>
    </edge>
    <edge id=":99545648_7" function="internal">
        <lane id=":99545648_7_0" index="0" disallow="pedestrian bicycle tram rail_urban rail rail_electric rail_fast ship" speed="8.66" length="5.38" shape="297.72,1142.27 301.61,1142.97 302.72,1143.85"/>
    </edge>
    <edge id=":99545648_8" function="internal">
        <lane id=":99545648_8_0" index="0" disallow="pedestrian bicycle tram rail_urban rail rail_electric rail_fast ship" speed="8.66" length="11.54" shape="302.72,1143.85 304.40,1145.18 306.08,1148.93 306.66,1154.19"/>
    </edge>
    <edge id=":99575503_0" function="internal">
        <lane id=":99575503_0_0" index="0" disallow="tram rail_urban rail rail_electric rail_fast ship" speed="6.52" length="9.06" shape="1232.05,533.31 1229.59,533.65 1227.82,534.70 1226.76,536.45 1226.39,538.90"/>
    </edge>
    <edge id=":99575503_1" function="internal">
        <lane id=":99575503_1_0" index="0" disallow="tram rail_urban rail rail_electric rail_fast ship" speed="22.22" length="20.82" shape="1232.05,533.31 1211.23,533.20"/>
    </edge>
    <edge id=":99575503_2" function="internal">
        <lane id=":99575503_2_0" index="0" disallow="tram rail_urban rail rail_electric rail_fast ship" speed="8.66" length="7.90" shape="1232.05,533.31 1226.79,532.74 1224.40,531.67"/>
    </edge>
    <edge id=":99575503_14" function="internal">