<?xml version="1.0" encoding="UTF-8"?>

<!-- generated on 2022-02-17 09:24:07 by Eclipse SUMO netedit Version v1_10_0+0106-205bfb5748
<configuration xmlns:xsi="http://www.w3.org/2001/XMLSchema-instance" xsi:noNamespaceSchemaLocation="http://sumo.dlr.de/xsd/netconvertConfiguration.xsd">

    <input>
        <sumo-net-file value="/Users/pei/Dropbox%20(University%20of%20Michigan)/Simulation-software-architecture/sumo_gym/highway_route_files/highway-100.net.xml"/>
    </input>

    <output>
        <output-file value="/Users/pei/Dropbox%20(University%20of%20Michigan)/Simulation-software-architecture/sumo_gym/highway_route_files/highway-100.net.xml"/>
    </output>

    <processing>
        <geometry.min-radius.fix.railways value="false"/>
        <geometry.max-grade.fix value="false"/>
        <offset.disable-normalization value="true"/>
        <lefthand value="false"/>
    </processing>

    <junctions>
        <no-turnarounds value="true"/>
        <junctions.corner-detail value="5"/>
        <junctions.limit-turn-speed value="5.5"/>
        <rectangular-lane-cut value="false"/>
    </junctions>

    <pedestrian>
        <walkingareas value="false"/>
    </pedestrian>

    <report>
        <aggregate-warnings value="5"/>
    </report>

</configuration>
-->

<net version="1.9" junctionCornerDetail="5" limitTurnSpeed="5.50" xmlns:xsi="http://www.w3.org/2001/XMLSchema-instance" xsi:noNamespaceSchemaLocation="http://sumo.dlr.de/xsd/net_file.xsd">

    <location netOffset="-268177.95,-4678248.81" convBoundary="0.00,84.38,11167.66,11077.09" origBoundary="-83.811833,42.225001,-83.675806,42.324180" projParameter="+proj=utm +zone=17 +ellps=WGS84 +datum=WGS84 +units=m +no_defs"/>

    <type id="highway.bridleway" priority="1" numLanes="1" speed="2.78" allow="pedestrian" oneway="1" width="2.00"/>
    <type id="highway.bus_guideway" priority="1" numLanes="1" speed="27.78" allow="bus" oneway="1"/>
    <type id="highway.cycleway" priority="1" numLanes="1" speed="8.33" allow="bicycle" oneway="1" width="1.00"/>
    <type id="highway.footway" priority="1" numLanes="1" speed="2.78" allow="pedestrian" oneway="1" width="2.00"/>
    <type id="highway.ford" priority="1" numLanes="1" speed="2.78" allow="army" oneway="1"/>
    <type id="highway.living_street" priority="2" numLanes="1" speed="2.78" disallow="tram rail_urban rail rail_electric rail_fast ship" oneway="1"/>
    <type id="highway.motorway" priority="14" numLanes="2" speed="39.44" allow="private emergency authority army vip passenger hov taxi bus coach delivery truck trailer motorcycle evehicle custom1 custom2" oneway="1"/>
    <type id="highway.motorway_link" priority="9" numLanes="1" speed="22.22" allow="private emergency authority army vip passenger hov taxi bus coach delivery truck trailer motorcycle evehicle custom1 custom2" oneway="1"/>
    <type id="highway.path" priority="1" numLanes="1" speed="2.78" allow="pedestrian bicycle" oneway="1" width="2.00"/>
    <type id="highway.pedestrian" priority="1" numLanes="1" speed="2.78" allow="pedestrian" oneway="1" width="2.00"/>
    <type id="highway.primary" priority="12" numLanes="2" speed="27.78" disallow="tram rail_urban rail rail_electric rail_fast ship" oneway="1"/>
    <type id="highway.primary_link" priority="7" numLanes="1" speed="22.22" disallow="tram rail_urban rail rail_electric rail_fast ship" oneway="1"/>
    <type id="highway.raceway" priority="15" numLanes="2" speed="83.33" allow="vip" oneway="1"/>
    <type id="highway.residential" priority="3" numLanes="1" speed="13.89" disallow="tram rail_urban rail rail_electric rail_fast ship" oneway="1"/>
    <type id="highway.secondary" priority="11" numLanes="1" speed="27.78" disallow="tram rail_urban rail rail_electric rail_fast ship" oneway="1"/>
    <type id="highway.secondary_link" priority="6" numLanes="1" speed="22.22" disallow="tram rail_urban rail rail_electric rail_fast ship" oneway="1"/>
    <type id="highway.service" priority="1" numLanes="1" speed="5.56" allow="pedestrian delivery bicycle" oneway="1"/>
    <type id="highway.stairs" priority="1" numLanes="1" speed="1.39" allow="pedestrian" oneway="1" width="2.00"/>
    <type id="highway.step" priority="1" numLanes="1" speed="1.39" allow="pedestrian" oneway="1" width="2.00"/>
    <type id="highway.steps" priority="1" numLanes="1" speed="1.39" allow="pedestrian" oneway="1" width="2.00"/>
    <type id="highway.tertiary" priority="10" numLanes="1" speed="22.22" disallow="tram rail_urban rail rail_electric rail_fast ship" oneway="1"/>
    <type id="highway.tertiary_link" priority="5" numLanes="1" speed="22.22" disallow="tram rail_urban rail rail_electric rail_fast ship" oneway="1"/>
    <type id="highway.track" priority="1" numLanes="1" speed="5.56" allow="pedestrian motorcycle moped bicycle" oneway="1"/>
    <type id="highway.trunk" priority="13" numLanes="2" speed="27.78" disallow="pedestrian bicycle tram rail_urban rail rail_electric rail_fast ship" oneway="1"/>
    <type id="highway.trunk_link" priority="8" numLanes="1" speed="22.22" disallow="pedestrian bicycle tram rail_urban rail rail_electric rail_fast ship" oneway="1"/>
    <type id="highway.unclassified" priority="4" numLanes="1" speed="13.89" disallow="tram rail_urban rail rail_electric rail_fast ship" oneway="1"/>
    <type id="highway.unsurfaced" priority="1" numLanes="1" speed="8.33" disallow="tram rail_urban rail rail_electric rail_fast ship" oneway="1"/>
    <type id="railway.highspeed" priority="21" numLanes="1" speed="69.44" allow="rail_fast" oneway="1"/>
    <type id="railway.light_rail" priority="19" numLanes="1" speed="27.78" allow="rail_urban" oneway="1"/>
    <type id="railway.preserved" priority="16" numLanes="1" speed="27.78" allow="rail" oneway="1"/>
    <type id="railway.rail" priority="20" numLanes="1" speed="44.44" allow="rail" oneway="1"/>
    <type id="railway.subway" priority="18" numLanes="1" speed="27.78" allow="rail_urban" oneway="1"/>
    <type id="railway.tram" priority="17" numLanes="1" speed="13.89" allow="tram" oneway="1"/>

    <edge id=":-103743_0" function="internal">
        <lane id=":-103743_0_0" index="0" allow="private emergency authority army vip passenger hov taxi bus coach delivery truck trailer motorcycle evehicle custom1 custom2" speed="31.29" length="0.27" shape="45.18,7409.64 45.53,7409.60"/>
        <lane id=":-103743_0_1" index="1" allow="private emergency authority army vip passenger hov taxi bus coach delivery truck trailer motorcycle evehicle custom1 custom2" speed="31.29" length="0.27" shape="45.57,7412.82 45.85,7412.79"/>
        <lane id=":-103743_0_2" index="2" allow="private emergency authority army vip passenger hov taxi bus coach delivery truck trailer motorcycle evehicle custom1 custom2" speed="31.29" length="0.27" shape="45.97,7415.99 46.17,7415.97"/>
    </edge>
    <edge id=":-103753_0" function="internal">
        <lane id=":-103753_0_0" index="0" allow="private emergency authority army vip passenger hov taxi bus coach delivery truck trailer motorcycle evehicle custom1 custom2" speed="31.29" length="0.45" shape="30.41,7457.60 30.18,7457.58 30.03,7457.56 29.88,7457.54 29.66,7457.50"/>
        <lane id=":-103753_0_1" index="1" allow="private emergency authority army vip passenger hov taxi bus coach delivery truck trailer motorcycle evehicle custom1 custom2" speed="31.29" length="0.45" shape="30.68,7454.41 30.54,7454.40 30.45,7454.39 30.36,7454.37 30.23,7454.35"/>
        <lane id=":-103753_0_2" index="2" allow="private emergency authority army vip passenger hov taxi bus coach delivery truck trailer motorcycle evehicle custom1 custom2" speed="31.29" length="0.45" shape="30.94,7451.22 30.90,7451.22 30.87,7451.21 30.84,7451.21 30.79,7451.20"/>
    </edge>
    <edge id=":251146636_0" function="internal">
        <lane id=":251146636_0_0" index="0" allow="private emergency authority army vip passenger hov taxi bus coach delivery truck trailer motorcycle evehicle custom1 custom2" speed="31.29" length="0.39" shape="10220.57,172.91 10220.65,173.42"/>
        <lane id=":251146636_0_1" index="1" allow="private emergency authority army vip passenger hov taxi bus coach delivery truck trailer motorcycle evehicle custom1 custom2" speed="31.29" length="0.39" shape="10217.42,173.46 10217.48,173.84"/>
        <lane id=":251146636_0_2" index="2" allow="private emergency authority army vip passenger hov taxi bus coach delivery truck trailer motorcycle evehicle custom1 custom2" speed="31.29" length="0.39" shape="10214.26,174.01 10214.30,174.27"/>
    </edge>
    <edge id=":251146637_0" function="internal">
        <lane id=":251146637_0_0" index="0" allow="private emergency authority army vip passenger hov taxi bus coach delivery truck trailer motorcycle evehicle custom1 custom2" speed="31.29" length="0.38" shape="10234.81,289.87 10234.80,290.36"/>
        <lane id=":251146637_0_1" index="1" allow="private emergency authority army vip passenger hov taxi bus coach delivery truck trailer motorcycle evehicle custom1 custom2" speed="31.29" length="0.38" shape="10231.61,289.90 10231.60,290.28"/>
        <lane id=":251146637_0_2" index="2" allow="private emergency authority army vip passenger hov taxi bus coach delivery truck trailer motorcycle evehicle custom1 custom2" speed="31.29" length="0.38" shape="10228.41,289.94 10228.41,290.19"/>
    </edge>
    <edge id=":62504297_0" function="internal">
        <lane id=":62504297_0_0" index="0" allow="private emergency authority army vip passenger hov taxi bus coach delivery truck trailer motorcycle evehicle custom1 custom2" speed="31.29" length="0.27" shape="10202.70,114.19 10202.82,114.52"/>
        <lane id=":62504297_0_1" index="1" allow="private emergency authority army vip passenger hov taxi bus coach delivery truck trailer motorcycle evehicle custom1 custom2" speed="31.29" length="0.27" shape="10199.69,115.27 10199.78,115.53"/>
        <lane id=":62504297_0_2" index="2" allow="private emergency authority army vip passenger hov taxi bus coach delivery truck trailer motorcycle evehicle custom1 custom2" speed="31.29" length="0.27" shape="10196.68,116.36 10196.75,116.54"/>
    </edge>
    <edge id=":62506941_0" function="internal">
        <lane id=":62506941_0_0" index="0" allow="private emergency authority army vip passenger hov taxi bus coach delivery truck trailer motorcycle evehicle custom1 custom2" speed="31.29" length="0.48" shape="6145.83,10785.21 6145.64,10785.08 6145.50,10784.98 6145.38,10784.89 6145.19,10784.74"/>
        <lane id=":62506941_0_1" index="1" allow="private emergency authority army vip passenger hov taxi bus coach delivery truck trailer motorcycle evehicle custom1 custom2" speed="31.29" length="0.48" shape="6147.59,10782.53 6147.47,10782.45 6147.39,10782.40 6147.31,10782.34 6147.20,10782.25"/>
        <lane id=":62506941_0_2" index="2" allow="private emergency authority army vip passenger hov taxi bus coach delivery truck trailer motorcycle evehicle custom1 custom2" speed="31.29" length="0.48" shape="6149.35,10779.86 6149.31,10779.83 6149.28,10779.81 6149.25,10779.79 6149.22,10779.76"/>
    </edge>
    <edge id=":62587896_0" function="internal">
        <lane id=":62587896_0_0" index="0" allow="private emergency authority army vip passenger hov taxi bus coach delivery truck trailer motorcycle evehicle custom1 custom2" speed="31.29" length="0.39" shape="10114.85,10890.38 10114.33,10890.75"/>
        <lane id=":62587896_0_1" index="1" allow="private emergency authority army vip passenger hov taxi bus coach delivery truck trailer motorcycle evehicle custom1 custom2" speed="31.29" length="0.39" shape="10112.87,10887.86 10112.56,10888.09"/>
        <lane id=":62587896_0_2" index="2" allow="private emergency authority army vip passenger hov taxi bus coach delivery truck trailer motorcycle evehicle custom1 custom2" speed="31.29" length="0.39" shape="10110.89,10885.35 10110.79,10885.42"/>
    </edge>
    <edge id=":62587899_0" function="internal">
        <lane id=":62587899_0_0" index="0" allow="private emergency authority army vip passenger hov taxi bus coach delivery truck trailer motorcycle evehicle custom1 custom2" speed="31.29" length="0.54" shape="10137.22,10872.71 10137.03,10872.90 10136.90,10873.03 10136.76,10873.15 10136.54,10873.31"/>
        <lane id=":62587899_0_1" index="1" allow="private emergency authority army vip passenger hov taxi bus coach delivery truck trailer motorcycle evehicle custom1 custom2" speed="31.29" length="0.54" shape="10134.97,10870.44 10134.86,10870.55 10134.78,10870.63 10134.69,10870.70 10134.57,10870.80"/>
        <lane id=":62587899_0_2" index="2" allow="private emergency authority army vip passenger hov taxi bus coach delivery truck trailer motorcycle evehicle custom1 custom2" speed="31.29" length="0.54" shape="10132.72,10868.16 10132.69,10868.20 10132.66,10868.23 10132.63,10868.25 10132.59,10868.28"/>
    </edge>
    <edge id=":67884244_0" function="internal">
        <lane id=":67884244_0_0" index="0" allow="private emergency authority army vip passenger hov taxi bus coach delivery truck trailer motorcycle evehicle custom1 custom2" speed="31.29" length="0.57" shape="6090.09,10737.12 6089.89,10736.92 6089.75,10736.78 6089.63,10736.64 6089.44,10736.42"/>
        <lane id=":67884244_0_1" index="1" allow="private emergency authority army vip passenger hov taxi bus coach delivery truck trailer motorcycle evehicle custom1 custom2" speed="31.29" length="0.57" shape="6092.30,10734.80 6092.17,10734.68 6092.09,10734.60 6092.02,10734.51 6091.91,10734.38"/>
        <lane id=":67884244_0_2" index="2" allow="private emergency authority army vip passenger hov taxi bus coach delivery truck trailer motorcycle evehicle custom1 custom2" speed="31.29" length="0.57" shape="6094.50,10732.48 6094.46,10732.44 6094.43,10732.41 6094.41,10732.38 6094.37,10732.34"/>
    </edge>

    <edge id="-102291" from="62587899" to="62587896" priority="14" type="highway.motorway" spreadType="center">
        <lane id="-102291_0" index="0" allow="private emergency authority army vip passenger hov taxi bus coach delivery truck trailer motorcycle evehicle custom1 custom2" speed="31.29" length="27.60" shape="10136.54,10873.31 10114.85,10890.38"/>
        <lane id="-102291_1" index="1" allow="private emergency authority army vip passenger hov taxi bus coach delivery truck trailer motorcycle evehicle custom1 custom2" speed="31.29" length="27.60" shape="10134.57,10870.80 10112.87,10887.86"/>
        <lane id="-102291_2" index="2" allow="private emergency authority army vip passenger hov taxi bus coach delivery truck trailer motorcycle evehicle custom1 custom2" speed="31.29" length="27.60" shape="10132.59,10868.28 10110.89,10885.35"/>
        <param key="ref" value="US 23;M 14"/>
    </edge>
    <edge id="-102366" from="-103753" to="-103743" priority="14" type="highway.motorway" spreadType="center" shape="30.45,7454.39 22.53,7452.96 18.19,7451.41 14.33,7449.59 12.44,7448.52 9.91,7446.90 7.94,7445.46 6.77,7444.53 4.94,7442.98 3.65,7441.03 2.69,7439.35 1.93,7437.84 1.24,7436.02 0.51,7433.94 0.12,7432.02 0.00,7430.87 0.08,7428.25 0.60,7425.12 1.81,7422.26 2.89,7420.64 3.86,7419.53 5.14,7418.37 6.61,7417.40 8.28,7416.60 10.68,7415.73 13.76,7415.08 20.37,7414.66 26.39,7414.28 31.74,7413.95 36.79,7413.63 41.29,7413.35 45.71,7412.80">
        <lane id="-102366_0" index="0" allow="private emergency authority army vip passenger hov taxi bus coach delivery truck trailer motorcycle evehicle custom1 custom2" speed="31.29" length="96.70" shape="29.66,7457.50 21.70,7456.06 16.97,7454.37 12.86,7452.43 10.79,7451.26 8.10,7449.54 6.01,7448.01 4.73,7447.00 2.52,7445.13 0.92,7442.71 -0.13,7440.87 -1.00,7439.13 -1.77,7437.11 -2.58,7434.79 -3.05,7432.51 -3.21,7430.99 -3.11,7427.94 -2.49,7424.22 -1.02,7420.74 0.34,7418.69 1.57,7417.28 3.17,7415.83 5.03,7414.61 7.04,7413.65 9.80,7412.65 13.33,7411.90 20.17,7411.47 26.19,7411.09 31.54,7410.76 36.59,7410.44 40.99,7410.16 45.18,7409.64"/>
        <lane id="-102366_1" index="1" allow="private emergency authority army vip passenger hov taxi bus coach delivery truck trailer motorcycle evehicle custom1 custom2" speed="31.29" length="96.70" shape="30.23,7454.35 22.53,7452.96 18.19,7451.41 14.33,7449.59 12.44,7448.52 9.91,7446.90 7.94,7445.46 6.77,7444.53 4.94,7442.98 3.65,7441.03 2.69,7439.35 1.93,7437.84 1.24,7436.02 0.51,7433.94 0.12,7432.02 0.00,7430.87 0.08,7428.25 0.60,7425.12 1.81,7422.26 2.89,7420.64 3.86,7419.53 5.14,7418.37 6.61,7417.40 8.28,7416.60 10.68,7415.73 13.76,7415.08 20.37,7414.66 26.39,7414.28 31.74,7413.95 36.79,7413.63 41.29,7413.35 45.57,7412.82"/>
        <lane id="-102366_2" index="2" allow="private emergency authority army vip passenger hov taxi bus coach delivery truck trailer motorcycle evehicle custom1 custom2" speed="31.29" length="96.70" shape="30.79,7451.20 23.36,7449.86 19.41,7448.45 15.80,7446.75 14.09,7445.78 11.72,7444.26 9.87,7442.91 8.81,7442.06 7.36,7440.83 6.38,7439.35 5.51,7437.83 4.86,7436.55 4.25,7434.93 3.60,7433.09 3.29,7431.53 3.21,7430.75 3.27,7428.56 3.69,7426.02 4.64,7423.78 5.44,7422.59 6.15,7421.78 7.11,7420.91 8.19,7420.19 9.52,7419.55 11.56,7418.81 14.19,7418.26 20.57,7417.85 26.59,7417.47 31.94,7417.14 36.99,7416.82 41.59,7416.54 45.97,7415.99"/>
        <param key="ref" value="M 14"/>
    </edge>
    <edge id="124433726" from="-103743" to="62504297" priority="14" type="highway.motorway" spreadType="center" shape="45.71,7412.80 53.06,7412.06 58.68,7411.20 90.86,7408.91 145.31,7401.52 231.34,7381.40 262.82,7374.83 348.69,7351.96 445.01,7332.17 692.96,7279.34 807.90,7252.79 902.91,7228.16 979.04,7207.16 1040.14,7189.52 1378.18,7089.53 1676.09,7004.15 1788.91,6971.10 1875.78,6945.91 1921.12,6930.52 1953.84,6915.85 1978.74,6902.19 2015.30,6879.42 2041.67,6860.44 2075.31,6833.01 2107.55,6801.46 2131.92,6773.73 2157.25,6740.81 2174.12,6715.59 2190.05,6687.83 2207.38,6650.62 2223.93,6619.01 2242.32,6563.03 2249.39,6526.58 2254.04,6499.54 2255.04,6468.86 2254.64,6429.03 2253.84,6321.34 2252.58,6260.13 2249.83,6198.63 2240.25,6064.99 2225.85,5894.82 2221.30,5836.50 2216.03,5768.53 2211.42,5708.43 2204.75,5623.38 2200.20,5571.88 2196.04,5524.80 2185.76,5408.56 2179.19,5318.85 2160.30,5092.24 2155.39,5027.93 2147.69,4939.13 2140.77,4846.09 2138.46,4795.70 2138.76,4754.45 2139.93,4714.50 2143.29,4668.26 2153.67,4591.99 2159.85,4556.10 2174.44,4487.15 2191.58,4428.12 2220.03,4348.59 2234.37,4312.44 2260.28,4258.68 2276.35,4227.58 2302.76,4181.47 2321.25,4150.96 2344.92,4114.84 2365.48,4086.82 2428.18,4009.18 2527.62,3900.99 2588.02,3836.21 2594.56,3829.00 2675.96,3739.85 2714.12,3699.48 2734.79,3677.35 2895.78,3501.35 2927.45,3466.97 3203.51,3167.06 3319.24,3040.53 3548.48,2791.12 3662.75,2667.90 3810.24,2506.93 3851.98,2460.84 4040.62,2258.01 4048.91,2248.85 4074.67,2220.45 4120.77,2169.59 4169.13,2117.30 4201.18,2081.79 4245.58,2034.71 4264.88,2013.41 4414.28,1851.95 4429.20,1835.79 4491.60,1773.08 4501.81,1764.19 4528.89,1740.86 4563.25,1712.62 4589.44,1692.43 4628.24,1666.05 4674.61,1636.21 4711.15,1614.35 4769.05,1583.36 4846.58,1549.17 4881.89,1534.91 4918.41,1522.51 4936.50,1517.37 4970.62,1507.15 5029.15,1492.33 5070.08,1484.01 5093.58,1479.69 5132.50,1473.92 5194.77,1467.88 5239.25,1466.13 5313.57,1465.41 5337.12,1465.54 5480.07,1465.08 5555.74,1464.84 5783.98,1464.81 5839.44,1464.81 6402.53,1464.79 6532.73,1464.76 6582.19,1465.11 6964.88,1464.62 7358.49,1465.69 7418.96,1465.96 7551.72,1465.66 7643.89,1465.27 7695.37,1465.85 7726.36,1466.20 7807.67,1464.50 7838.90,1462.28 7883.08,1459.09 7920.67,1454.23 7941.40,1451.45 7987.72,1443.09 7990.92,1442.32 8052.17,1428.14 8078.54,1420.96 8096.80,1415.94 8150.15,1397.56 8179.24,1387.52 8206.96,1375.59 8235.26,1362.80 8265.33,1348.05 8303.09,1328.89 8381.94,1283.59 8410.41,1264.23 8448.11,1239.36 8703.32,1066.52 8732.10,1046.82 8961.15,889.93 9013.56,854.24 9063.76,820.03 9320.10,645.42 9408.75,585.03 9523.07,507.17 9604.40,451.88 9724.77,367.34 9798.35,320.10 9869.51,271.64 9966.62,205.45 10027.09,164.22 10093.36,120.17 10132.09,94.62 10143.45,89.58 10154.29,85.78 10164.16,84.38 10173.51,85.72 10181.42,87.61 10188.21,92.47 10191.99,98.21 10195.41,104.31 10197.44,109.02 10199.74,115.40">
        <lane id="124433726_0" index="0" allow="private emergency authority army vip passenger hov taxi bus coach delivery truck trailer motorcycle evehicle custom1 custom2" speed="31.29" length="14320.71" shape="45.53,7409.60 52.66,7408.88 58.32,7408.02 90.53,7405.73 144.73,7398.37 230.65,7378.28 262.08,7371.72 347.96,7348.84 444.35,7329.04 692.27,7276.22 807.14,7249.68 902.08,7225.07 978.17,7204.08 1039.24,7186.45 1377.29,7086.46 1675.20,7001.08 1788.01,6968.03 1874.82,6942.86 1919.95,6927.54 1952.41,6912.98 1977.12,6899.43 2013.52,6876.76 2039.72,6857.90 2073.18,6830.62 2105.23,6799.26 2129.45,6771.70 2154.65,6738.94 2171.40,6713.90 2187.21,6686.36 2204.51,6649.20 2220.97,6617.76 2239.22,6562.22 2246.24,6526.00 2250.85,6499.22 2251.84,6468.82 2251.44,6429.06 2250.64,6321.38 2249.38,6260.23 2246.64,6198.82 2237.06,6065.24 2222.66,5895.08 2218.11,5836.75 2212.84,5768.78 2208.23,5708.68 2201.56,5623.65 2197.01,5572.16 2192.85,5525.08 2182.57,5408.82 2176.00,5319.10 2157.11,5092.49 2152.20,5028.19 2144.50,4939.39 2137.58,4846.28 2135.26,4795.76 2135.56,4754.39 2136.73,4714.34 2140.11,4667.93 2150.51,4591.50 2156.71,4555.50 2171.33,4486.37 2188.53,4427.13 2217.04,4347.46 2231.44,4311.15 2257.42,4257.25 2273.54,4226.05 2300.00,4179.85 2318.54,4149.25 2342.29,4113.02 2362.94,4084.87 2425.75,4007.09 2525.27,3898.82 2585.66,3834.04 2592.19,3826.85 2673.62,3737.67 2711.79,3697.29 2732.44,3675.18 2893.42,3499.19 2925.10,3464.80 3201.15,3164.90 3316.88,3038.37 3546.13,2788.95 3660.40,2665.73 3807.87,2504.78 3849.62,2458.68 4038.26,2255.85 4046.54,2246.70 4072.30,2218.30 4118.41,2167.43 4166.77,2115.14 4198.83,2079.62 4243.23,2032.54 4262.52,2011.25 4411.93,1849.78 4426.89,1833.58 4489.41,1770.74 4499.71,1761.77 4526.83,1738.41 4561.26,1710.12 4587.56,1689.84 4626.47,1663.38 4672.92,1633.49 4709.57,1611.56 4767.65,1580.48 4845.33,1546.22 4880.78,1531.91 4917.46,1519.45 4935.60,1514.30 4969.77,1504.06 5028.44,1489.21 5069.47,1480.87 5093.06,1476.53 5132.11,1470.74 5194.55,1464.69 5239.17,1462.93 5313.56,1462.21 5337.12,1462.34 5480.06,1461.88 5555.73,1461.64 5783.98,1461.61 5839.44,1461.61 6402.53,1461.59 6532.74,1461.56 6582.20,1461.91 6964.88,1461.42 7358.50,1462.49 7418.96,1462.76 7551.71,1462.46 7643.90,1462.07 7695.41,1462.65 7726.34,1463.00 7807.52,1461.30 7838.67,1459.09 7882.76,1455.90 7920.25,1451.06 7940.90,1448.29 7987.06,1439.96 7990.18,1439.21 8051.39,1425.04 8077.70,1417.87 8095.85,1412.88 8149.11,1394.53 8178.08,1384.53 8205.67,1372.66 8233.90,1359.90 8263.90,1345.19 8301.57,1326.07 8380.24,1280.88 8408.63,1261.57 8446.33,1236.70 8701.52,1063.87 8730.29,1044.18 8959.35,887.29 9011.76,851.60 9061.96,817.39 9318.30,642.78 9406.95,582.39 9521.27,504.52 9602.58,449.25 9722.99,364.68 9796.58,317.43 9867.71,269.00 9964.82,202.81 10025.30,161.57 10091.59,117.50 10130.55,91.80 10142.27,86.60 10153.53,82.66 10164.16,81.15 10174.11,82.57 10182.77,84.64 10190.56,90.21 10194.73,96.55 10198.28,102.89 10200.42,107.84 10202.70,114.19"/>
        <lane id="124433726_1" index="1" allow="private emergency authority army vip passenger hov taxi bus coach delivery truck trailer motorcycle evehicle custom1 custom2" speed="31.29" length="14320.71" shape="45.85,7412.79 53.06,7412.06 58.68,7411.20 90.86,7408.91 145.31,7401.52 231.34,7381.40 262.82,7374.83 348.69,7351.96 445.01,7332.17 692.96,7279.34 807.90,7252.79 902.91,7228.16 979.04,7207.16 1040.14,7189.52 1378.18,7089.53 1676.09,7004.15 1788.91,6971.10 1875.78,6945.91 1921.12,6930.52 1953.84,6915.85 1978.74,6902.19 2015.30,6879.42 2041.67,6860.44 2075.31,6833.01 2107.55,6801.46 2131.92,6773.73 2157.25,6740.81 2174.12,6715.59 2190.05,6687.83 2207.38,6650.62 2223.93,6619.01 2242.32,6563.03 2249.39,6526.58 2254.04,6499.54 2255.04,6468.86 2254.64,6429.03 2253.84,6321.34 2252.58,6260.13 2249.83,6198.63 2240.25,6064.99 2225.85,5894.82 2221.30,5836.50 2216.03,5768.53 2211.42,5708.43 2204.75,5623.38 2200.20,5571.88 2196.04,5524.80 2185.76,5408.56 2179.19,5318.85 2160.30,5092.24 2155.39,5027.93 2147.69,4939.13 2140.77,4846.09 2138.46,4795.70 2138.76,4754.45 2139.93,4714.50 2143.29,4668.26 2153.67,4591.99 2159.85,4556.10 2174.44,4487.15 2191.58,4428.12 2220.03,4348.59 2234.37,4312.44 2260.28,4258.68 2276.35,4227.58 2302.76,4181.47 2321.25,4150.96 2344.92,4114.84 2365.48,4086.82 2428.18,4009.18 2527.62,3900.99 2588.02,3836.21 2594.56,3829.00 2675.96,3739.85 2714.12,3699.48 2734.79,3677.35 2895.78,3501.35 2927.45,3466.97 3203.51,3167.06 3319.24,3040.53 3548.48,2791.12 3662.75,2667.90 3810.24,2506.93 3851.98,2460.84 4040.62,2258.01 4048.91,2248.85 4074.67,2220.45 4120.77,2169.59 4169.13,2117.30 4201.18,2081.79 4245.58,2034.71 4264.88,2013.41 4414.28,1851.95 4429.20,1835.79 4491.60,1773.08 4501.81,1764.19 4528.89,1740.86 4563.25,1712.62 4589.44,1692.43 4628.24,1666.05 4674.61,1636.21 4711.15,1614.35 4769.05,1583.36 4846.58,1549.17 4881.89,1534.91 4918.41,1522.51 4936.50,1517.37 4970.62,1507.15 5029.15,1492.33 5070.08,1484.01 5093.58,1479.69 5132.50,1473.92 5194.77,1467.88 5239.25,1466.13 5313.57,1465.41 5337.12,1465.54 5480.07,1465.08 5555.74,1464.84 5783.98,1464.81 5839.44,1464.81 6402.53,1464.79 6532.73,1464.76 6582.19,1465.11 6964.88,1464.62 7358.49,1465.69 7418.96,1465.96 7551.72,1465.66 7643.89,1465.27 7695.37,1465.85 7726.36,1466.20 7807.67,1464.50 7838.90,1462.28 7883.08,1459.09 7920.67,1454.23 7941.40,1451.45 7987.72,1443.09 7990.92,1442.32 8052.17,1428.14 8078.54,1420.96 8096.80,1415.94 8150.15,1397.56 8179.24,1387.52 8206.96,1375.59 8235.26,1362.80 8265.33,1348.05 8303.09,1328.89 8381.94,1283.59 8410.41,1264.23 8448.11,1239.36 8703.32,1066.52 8732.10,1046.82 8961.15,889.93 9013.56,854.24 9063.76,820.03 9320.10,645.42 9408.75,585.03 9523.07,507.17 9604.40,451.88 9724.77,367.34 9798.35,320.10 9869.51,271.64 9966.62,205.45 10027.09,164.22 10093.36,120.17 10132.09,94.62 10143.45,89.58 10154.29,85.78 10164.16,84.38 10173.51,85.72 10181.42,87.61 10188.21,92.47 10191.99,98.21 10195.41,104.31 10197.44,109.02 10199.69,115.27"/>
        <lane id="124433726_2" index="2" allow="private emergency authority army vip passenger hov taxi bus coach delivery truck trailer motorcycle evehicle custom1 custom2" speed="31.29" length="14320.71" shape="46.17,7415.97 53.46,7415.24 59.04,7414.38 91.19,7412.09 145.89,7404.67 232.03,7384.52 263.56,7377.94 349.42,7355.08 445.67,7335.30 693.65,7282.46 808.66,7255.90 903.74,7231.25 979.91,7210.24 1041.04,7192.59 1379.07,7092.60 1676.98,7007.22 1789.81,6974.17 1876.74,6948.96 1922.29,6933.50 1955.27,6918.72 1980.36,6904.95 2017.08,6882.08 2043.62,6862.98 2077.44,6835.40 2109.87,6803.66 2134.39,6775.76 2159.85,6742.68 2176.84,6717.28 2192.89,6689.30 2210.25,6652.04 2226.89,6620.26 2245.42,6563.84 2252.54,6527.16 2257.23,6499.86 2258.24,6468.90 2257.84,6429.00 2257.04,6321.30 2255.78,6260.03 2253.02,6198.44 2243.44,6064.74 2229.04,5894.56 2224.49,5836.25 2219.22,5768.28 2214.61,5708.18 2207.94,5623.11 2203.39,5571.60 2199.23,5524.52 2188.95,5408.30 2182.38,5318.60 2163.49,5091.99 2158.58,5027.67 2150.88,4938.87 2143.96,4845.90 2141.66,4795.64 2141.96,4754.51 2143.13,4714.66 2146.47,4668.59 2156.83,4592.48 2162.99,4556.70 2177.55,4487.93 2194.63,4429.11 2223.02,4349.72 2237.30,4313.73 2263.14,4260.11 2279.16,4229.11 2305.52,4183.09 2323.96,4152.67 2347.55,4116.66 2368.02,4088.77 2430.61,4011.27 2529.97,3903.16 2590.38,3838.38 2596.93,3831.15 2678.30,3742.03 2716.45,3701.67 2737.14,3679.52 2898.14,3503.51 2929.80,3469.14 3205.87,3169.22 3321.60,3042.69 3550.83,2793.29 3665.10,2670.07 3812.61,2509.08 3854.34,2463.00 4042.98,2260.17 4051.28,2251.00 4077.04,2222.60 4123.13,2171.75 4171.49,2119.46 4203.53,2083.96 4247.93,2036.88 4267.24,2015.57 4416.63,1854.12 4431.51,1838.00 4493.79,1775.42 4503.91,1766.61 4530.95,1743.31 4565.24,1715.12 4591.32,1695.02 4630.01,1668.72 4676.30,1638.93 4712.73,1617.14 4770.45,1586.24 4847.83,1552.12 4883.00,1537.91 4919.36,1525.57 4937.40,1520.44 4971.47,1510.24 5029.86,1495.45 5070.69,1487.15 5094.10,1482.85 5132.89,1477.10 5194.99,1471.07 5239.33,1469.33 5313.58,1468.61 5337.12,1468.74 5480.08,1468.28 5555.75,1468.04 5783.98,1468.01 5839.44,1468.01 6402.53,1467.99 6532.72,1467.96 6582.18,1468.31 6964.88,1467.82 7358.48,1468.89 7418.96,1469.16 7551.73,1468.86 7643.88,1468.47 7695.33,1469.05 7726.38,1469.40 7807.82,1467.70 7839.13,1465.47 7883.40,1462.28 7921.09,1457.40 7941.90,1454.61 7988.38,1446.22 7991.66,1445.43 8052.95,1431.24 8079.38,1424.05 8097.75,1419.00 8151.19,1400.59 8180.40,1390.51 8208.25,1378.52 8236.62,1365.70 8266.76,1350.91 8304.61,1331.71 8383.64,1286.30 8412.19,1266.89 8449.89,1242.02 8705.12,1069.17 8733.91,1049.46 8962.95,892.57 9015.36,856.88 9065.56,822.67 9321.90,648.06 9410.55,587.67 9524.87,509.82 9606.22,454.51 9726.55,370.00 9800.12,322.77 9871.31,274.28 9968.42,208.09 10028.88,166.87 10095.13,122.84 10133.63,97.44 10144.63,92.56 10155.05,88.90 10164.16,87.61 10172.91,88.87 10180.07,90.58 10185.86,94.73 10189.25,99.87 10192.54,105.73 10194.46,110.20 10196.68,116.36"/>
        <param key="ref" value="I 94"/>
    </edge>
    <edge id="23217904" from="251146636" to="251146637" priority="14" type="highway.motorway" spreadType="center" shape="10217.45,173.65 10231.48,278.24 10231.61,290.09">
        <lane id="23217904_0" index="0" allow="private emergency authority army vip passenger hov taxi bus coach delivery truck trailer motorcycle evehicle custom1 custom2" speed="31.29" length="116.99" shape="10220.65,173.42 10234.68,278.01 10234.81,289.87"/>
        <lane id="23217904_1" index="1" allow="private emergency authority army vip passenger hov taxi bus coach delivery truck trailer motorcycle evehicle custom1 custom2" speed="31.29" length="116.99" shape="10217.48,173.84 10231.48,278.24 10231.61,289.90"/>