<configuration>
    <input>
        <net-file value="highway-100.net.xml"/>
        <route-files value="highway-600.rou.xml"/>
		<additional-files value="highway-100.add.xml"/>
    </input>
    <time>
        <begin value="0"/>
        <end value="10000"/>
    </time>
</configuration>