<?xml version="1.0" encoding="UTF-8"?>
<routes xmlns:xsi="http://www.w3.org/2001/XMLSchema-instance" xsi:noNamespaceSchemaLocation="http://sumo.dlr.de/xsd/routes_file.xsd">
<vType id="typegen_1" carFollowModel="IDM" tau="2.576400" minGap="66.915001" accel="1.311400" decel="4.331800" delta="3.763300" />
<vType id="typegen_2" carFollowModel="IDM" tau="2.690400" minGap="63.077000" accel="0.600400" decel="5.569400" delta="3.951300" />
<vType id="typegen_3" carFollowModel="IDM" tau="1.869600" minGap="59.643002" accel="0.847100" decel="5.974000" delta="3.763300" />
<vType id="typegen_4" carFollowModel="IDM" tau="2.462400" minGap="69.036003" accel="0.905100" decel="5.402800" delta="4.211500" />
<vType id="typegen_5" carFollowModel="IDM" tau="1.299600" minGap="61.662998" accel="1.369400" decel="4.308000" delta="4.399500" />
<vType id="typegen_6" carFollowModel="IDM" tau="2.394000" minGap="59.238998" accel="1.050200" decel="4.427000" delta="3.777700" />
<vType id="typegen_7" carFollowModel="IDM" tau="1.573200" minGap="62.369999" accel="1.093700" decel="6.164400" delta="4.269400" />
<vType id="typegen_8" carFollowModel="IDM" tau="1.254000" minGap="66.511002" accel="1.151800" decel="5.141000" delta="4.312800" />
<vType id="typegen_9" carFollowModel="IDM" tau="2.416800" minGap="59.340000" accel="1.238800" decel="5.188600" delta="3.705400" />
<vType id="typegen_10" carFollowModel="IDM" tau="2.530800" minGap="61.562000" accel="1.122800" decel="5.188600" delta="3.228300" />
<vType id="typegen_11" carFollowModel="IDM" tau="1.687200" minGap="64.592003" accel="1.659600" decel="3.736800" delta="3.676500" />
<vType id="typegen_12" carFollowModel="IDM" tau="2.120400" minGap="66.814003" accel="1.253300" decel="4.450800" delta="3.734400" />
<vType id="typegen_13" carFollowModel="IDM" tau="1.801200" minGap="67.015999" accel="1.180800" decel="4.665000" delta="4.095900" />
<vType id="typegen_14" carFollowModel="IDM" tau="2.211600" minGap="71.258003" accel="0.905100" decel="4.760200" delta="4.081400" />
<vType id="typegen_15" carFollowModel="IDM" tau="0.684000" minGap="63.784000" accel="1.137300" decel="4.903000" delta="3.864500" />
<vType id="typegen_16" carFollowModel="IDM" tau="2.280000" minGap="64.793999" accel="1.674100" decel="4.950600" delta="4.356100" />
<vType id="typegen_17" carFollowModel="IDM" tau="2.644800" minGap="63.682999" accel="1.296900" decel="5.117200" delta="4.081400" />
<vType id="typegen_18" carFollowModel="IDM" tau="1.527600" minGap="64.289001" accel="1.296900" decel="4.022400" delta="4.211500" />
<vType id="typegen_19" carFollowModel="IDM" tau="2.371200" minGap="62.471001" accel="0.890600" decel="5.188600" delta="4.283800" />
<vType id="typegen_20" carFollowModel="IDM" tau="2.234400" minGap="65.601997" accel="1.035700" decel="4.379400" delta="4.095900" />
<vType id="typegen_21" carFollowModel="IDM" tau="0.661200" minGap="60.551998" accel="1.456500" decel="3.951000" delta="4.399500" />
<vType id="typegen_22" carFollowModel="IDM" tau="2.713200" minGap="58.834999" accel="1.819200" decel="6.116800" delta="3.416200" />
<vType id="typegen_23" carFollowModel="IDM" tau="1.482000" minGap="60.855000" accel="0.977700" decel="4.569800" delta="3.662100" />
<vType id="typegen_24" carFollowModel="IDM" tau="2.188800" minGap="59.643002" accel="1.572600" decel="5.093400" delta="4.341700" />
<vType id="typegen_25" carFollowModel="IDM" tau="2.644800" minGap="60.147999" accel="1.369400" decel="3.832000" delta="3.922300" />
<vType id="typegen_26" carFollowModel="IDM" tau="0.319200" minGap="65.197998" accel="1.267900" decel="4.212800" delta="3.850000" />
<vType id="typegen_27" carFollowModel="IDM" tau="1.459200" minGap="70.449997" accel="1.354900" decel="6.188200" delta="4.023600" />
<vType id="typegen_28" carFollowModel="IDM" tau="1.436400" minGap="62.167999" accel="0.977700" decel="5.260000" delta="4.023600" />
<vType id="typegen_29" carFollowModel="IDM" tau="2.895600" minGap="62.673000" accel="0.861600" decel="5.450400" delta="3.806700" />
<vType id="typegen_30" carFollowModel="IDM" tau="0.342000" minGap="62.976002" accel="1.340400" decel="5.545600" delta="3.560800" />
<vType id="typegen_31" carFollowModel="IDM" tau="1.915200" minGap="65.703003" accel="1.514500" decel="4.831600" delta="3.821100" />
<vType id="typegen_32" carFollowModel="IDM" tau="1.322400" minGap="61.360001" accel="1.079200" decel="4.879200" delta="3.401800" />
<vType id="typegen_33" carFollowModel="IDM" tau="2.576400" minGap="61.258999" accel="1.253300" decel="4.974400" delta="3.792200" />
<vType id="typegen_34" carFollowModel="IDM" tau="1.482000" minGap="64.693001" accel="1.224300" decel="4.308000" delta="4.038000" />
<vType id="typegen_35" carFollowModel="IDM" tau="3.192000" minGap="64.693001" accel="0.919600" decel="5.593200" delta="3.604200" />
<vType id="typegen_36" carFollowModel="IDM" tau="1.436400" minGap="64.793999" accel="1.514500" decel="4.284200" delta="4.052500" />
<vType id="typegen_37" carFollowModel="IDM" tau="2.553600" minGap="61.158001" accel="1.456500" decel="4.284200" delta="4.717600" />
<vType id="typegen_38" carFollowModel="IDM" tau="1.664400" minGap="60.551998" accel="1.369400" decel="4.331800" delta="3.662100" />
<vType id="typegen_39" carFollowModel="IDM" tau="2.599200" minGap="64.693001" accel="1.166300" decel="5.188600" delta="4.052500" />
<vType id="typegen_40" carFollowModel="IDM" tau="3.100800" minGap="60.855000" accel="1.195300" decel="5.712200" delta="3.719900" />
<vType id="typegen_41" carFollowModel="IDM" tau="2.827200" minGap="63.884998" accel="1.093700" decel="4.950600" delta="4.399500" />
<vType id="typegen_42" carFollowModel="IDM" tau="1.755600" minGap="67.622002" accel="1.180800" decel="4.855400" delta="4.385100" />
<vType id="typegen_43" carFollowModel="IDM" tau="2.394000" minGap="67.116997" accel="1.369400" decel="4.308000" delta="4.124800" />
<vType id="typegen_44" carFollowModel="IDM" tau="2.143200" minGap="62.067001" accel="1.064700" decel="4.903000" delta="3.850000" />
<vType id="typegen_45" carFollowModel="IDM" tau="2.029200" minGap="64.793999" accel="1.064700" decel="5.069600" delta="3.879000" />
<vType id="typegen_46" carFollowModel="IDM" tau="1.573200" minGap="67.218002" accel="1.079200" decel="3.403600" delta="3.372900" />
<vType id="typegen_47" carFollowModel="IDM" tau="2.530800" minGap="59.845001" accel="1.166300" decel="5.093400" delta="4.197100" />
<vType id="typegen_48" carFollowModel="IDM" tau="2.439600" minGap="61.662998" accel="1.471000" decel="3.356000" delta="4.298300" />
<vType id="typegen_49" carFollowModel="IDM" tau="1.208400" minGap="62.167999" accel="1.369400" decel="3.974800" delta="3.792200" />
<vType id="typegen_50" carFollowModel="IDM" tau="3.237600" minGap="61.764000" accel="0.963100" decel="5.236200" delta="3.618700" />
<vType id="typegen_51" carFollowModel="IDM" tau="2.097600" minGap="60.855000" accel="1.471000" decel="4.831600" delta="3.763300" />
<vType id="typegen_52" carFollowModel="IDM" tau="2.576400" minGap="61.258999" accel="1.166300" decel="5.736000" delta="4.283800" />
<vType id="typegen_53" carFollowModel="IDM" tau="2.599200" minGap="62.673000" accel="1.354900" decel="4.950600" delta="3.604200" />
<vType id="typegen_54" carFollowModel="IDM" tau="0.866400" minGap="64.996002" accel="1.151800" decel="5.712200" delta="4.283800" />
<vType id="typegen_55" carFollowModel="IDM" tau="1.436400" minGap="59.238998" accel="0.919600" decel="6.283400" delta="4.457400" />
<vType id="typegen_56" carFollowModel="IDM" tau="2.052000" minGap="62.875000" accel="0.832600" decel="4.522200" delta="4.066900" />
<vType id="typegen_57" carFollowModel="IDM" tau="2.234400" minGap="65.097000" accel="1.137300" decel="4.331800" delta="3.864500" />
<vType id="typegen_58" carFollowModel="IDM" tau="0.570000" minGap="57.723999" accel="1.064700" decel="3.617800" delta="3.662100" />
<vType id="typegen_59" carFollowModel="IDM" tau="1.573200" minGap="66.612000" accel="0.832600" decel="5.545600" delta="4.226000" />
<vType id="typegen_60" carFollowModel="IDM" tau="2.804400" minGap="65.097000" accel="0.818000" decel="4.260400" delta="3.618700" />
<vType id="typegen_61" carFollowModel="IDM" tau="2.622000" minGap="64.188004" accel="1.238800" decel="5.617000" delta="3.575300" />
<vType id="typegen_62" carFollowModel="IDM" tau="0.957600" minGap="59.945999" accel="1.456500" decel="4.617400" delta="3.907900" />
<vType id="typegen_63" carFollowModel="IDM" tau="2.690400" minGap="59.138000" accel="0.745500" decel="5.188600" delta="4.486300" />
<vType id="typegen_64" carFollowModel="IDM" tau="1.915200" minGap="71.459999" accel="1.093700" decel="4.165200" delta="4.327200" />
<vType id="typegen_65" carFollowModel="IDM" tau="1.254000" minGap="66.308998" accel="1.079200" decel="4.308000" delta="3.618700" />
<vType id="typegen_66" carFollowModel="IDM" tau="2.371200" minGap="66.511002" accel="1.006700" decel="3.974800" delta="3.980200" />
<vType id="typegen_67" carFollowModel="IDM" tau="2.416800" minGap="66.915001" accel="1.296900" decel="5.712200" delta="3.184900" />
<vType id="typegen_68" carFollowModel="IDM" tau="1.573200" minGap="59.743999" accel="0.861600" decel="4.498400" delta="3.748800" />
<vType id="typegen_69" carFollowModel="IDM" tau="3.169200" minGap="66.511002" accel="1.267900" decel="4.784000" delta="4.312800" />
<vType id="typegen_70" carFollowModel="IDM" tau="2.439600" minGap="62.673000" accel="1.543500" decel="5.022000" delta="4.009100" />
<vType id="typegen_71" carFollowModel="IDM" tau="1.596000" minGap="59.036999" accel="0.789000" decel="4.950600" delta="3.893400" />
<vType id="typegen_72" carFollowModel="IDM" tau="2.416800" minGap="56.007000" accel="0.876100" decel="4.665000" delta="3.806700" />
<vType id="typegen_73" carFollowModel="IDM" tau="1.276800" minGap="64.894997" accel="1.021200" decel="5.212400" delta="3.835600" />
<vType id="typegen_74" carFollowModel="IDM" tau="1.322400" minGap="66.612000" accel="1.369400" decel="4.569800" delta="4.110300" />
<vType id="typegen_75" carFollowModel="IDM" tau="0.775200" minGap="64.289001" accel="1.050200" decel="5.283800" delta="3.965700" />
<vType id="typegen_76" carFollowModel="IDM" tau="1.527600" minGap="61.966000" accel="1.267900" decel="5.260000" delta="4.356100" />
<vType id="typegen_77" carFollowModel="IDM" tau="1.755600" minGap="66.308998" accel="1.616100" decel="4.784000" delta="4.110300" />
<vType id="typegen_78" carFollowModel="IDM" tau="2.667600" minGap="67.319000" accel="1.325900" decel="3.736800" delta="4.471800" />
<vType id="typegen_79" carFollowModel="IDM" tau="3.009600" minGap="61.258999" accel="0.832600" decel="4.498400" delta="3.691000" />
<vType id="typegen_80" carFollowModel="IDM" tau="2.895600" minGap="68.329002" accel="1.732200" decel="5.831200" delta="3.719900" />
<vType id="typegen_81" carFollowModel="IDM" tau="2.918400" minGap="66.612000" accel="1.572600" decel="4.189000" delta="3.850000" />
<vType id="typegen_82" carFollowModel="IDM" tau="1.960800" minGap="63.077000" accel="1.296900" decel="5.069600" delta="3.705400" />
<vType id="typegen_83" carFollowModel="IDM" tau="1.048800" minGap="67.521004" accel="0.919600" decel="4.641200" delta="3.806700" />
<vType id="typegen_84" carFollowModel="IDM" tau="0.433200" minGap="58.834999" accel="1.717700" decel="3.927200" delta="4.168200" />
<vType id="typegen_85" carFollowModel="IDM" tau="2.416800" minGap="60.653000" accel="1.064700" decel="5.736000" delta="3.560800" />
<vType id="typegen_86" carFollowModel="IDM" tau="0.980400" minGap="61.865002" accel="1.093700" decel="4.760200" delta="4.428400" />
<vType id="typegen_87" carFollowModel="IDM" tau="1.596000" minGap="66.915001" accel="1.267900" decel="4.736400" delta="3.488500" />
<vType id="typegen_88" carFollowModel="IDM" tau="1.504800" minGap="61.158001" accel="1.238800" decel="4.141400" delta="3.691000" />
<vType id="typegen_89" carFollowModel="IDM" tau="2.599200" minGap="62.269001" accel="1.238800" decel="4.593600" delta="3.503000" />
<vType id="typegen_90" carFollowModel="IDM" tau="1.550400" minGap="59.441002" accel="0.832600" decel="5.759800" delta="3.907900" />
<vType id="typegen_91" carFollowModel="IDM" tau="1.664400" minGap="65.097000" accel="1.021200" decel="4.450800" delta="4.428400" />
<vType id="typegen_92" carFollowModel="IDM" tau="2.280000" minGap="65.097000" accel="0.992200" decel="5.736000" delta="3.705400" />
<vType id="typegen_93" carFollowModel="IDM" tau="2.644800" minGap="67.116997" accel="0.919600" decel="5.474200" delta="3.618700" />
<vType id="typegen_94" carFollowModel="IDM" tau="2.416800" minGap="66.308998" accel="1.006700" decel="5.307600" delta="4.254900" />
<vType id="typegen_95" carFollowModel="IDM" tau="0.752400" minGap="61.460999" accel="1.064700" decel="4.807800" delta="3.864500" />
<vType id="typegen_96" carFollowModel="IDM" tau="2.394000" minGap="60.451000" accel="1.209800" decel="5.022000" delta="4.920100" />
<vType id="typegen_97" carFollowModel="IDM" tau="1.892400" minGap="59.845001" accel="0.629400" decel="4.665000" delta="4.341700" />
<vType id="typegen_98" carFollowModel="IDM" tau="3.465600" minGap="58.734001" accel="1.427500" decel="5.688400" delta="4.110300" />
<vType id="typegen_99" carFollowModel="IDM" tau="1.596000" minGap="67.319000" accel="1.209800" decel="4.760200" delta="4.095900" />
<vType id="typegen_100" carFollowModel="IDM" tau="1.915200" minGap="66.308998" accel="1.195300" decel="4.926800" delta="4.312800" />
<vType id="typegen_101" carFollowModel="IDM" tau="2.143200" minGap="61.865002" accel="1.180800" decel="4.926800" delta="3.777700" />
<vType id="typegen_102" carFollowModel="IDM" tau="2.166000" minGap="60.754002" accel="1.325900" decel="4.665000" delta="4.081400" />
<vType id="typegen_103" carFollowModel="IDM" tau="1.687200" minGap="61.865002" accel="1.209800" decel="4.522200" delta="3.821100" />
<vType id="typegen_104" carFollowModel="IDM" tau="1.094400" minGap="61.360001" accel="1.195300" decel="4.617400" delta="4.370600" />
<vType id="typegen_105" carFollowModel="IDM" tau="1.755600" minGap="61.360001" accel="1.456500" decel="4.284200" delta="4.066900" />
<vType id="typegen_106" carFollowModel="IDM" tau="2.052000" minGap="61.662998" accel="0.832600" decel="4.046200" delta="4.457400" />
<vType id="typegen_107" carFollowModel="IDM" tau="0.866400" minGap="63.784000" accel="0.948600" decel="5.236200" delta="4.211500" />
<vType id="typegen_108" carFollowModel="IDM" tau="1.892400" minGap="66.915001" accel="1.369400" decel="5.141000" delta="4.457400" />
<vType id="typegen_109" carFollowModel="IDM" tau="1.938000" minGap="66.511002" accel="1.122800" decel="4.093800" delta="4.023600" />
<vType id="typegen_110" carFollowModel="IDM" tau="1.345200" minGap="62.369999" accel="1.195300" decel="4.070000" delta="3.343900" />
<vType id="typegen_111" carFollowModel="IDM" tau="1.641600" minGap="60.147999" accel="1.035700" decel="5.807400" delta="4.211500" />
<vType id="typegen_112" carFollowModel="IDM" tau="1.778400" minGap="60.653000" accel="1.514500" decel="4.284200" delta="3.647600" />
<vType id="typegen_113" carFollowModel="IDM" tau="1.983600" minGap="59.643002" accel="1.485500" decel="5.355200" delta="3.560800" />
<vType id="typegen_114" carFollowModel="IDM" tau="2.371200" minGap="65.804001" accel="0.629400" decel="5.878800" delta="3.503000" />
<vType id="typegen_115" carFollowModel="IDM" tau="2.781600" minGap="61.460999" accel="0.963100" decel="5.164800" delta="4.066900" />
<vType id="typegen_116" carFollowModel="IDM" tau="2.644800" minGap="61.764000" accel="0.731000" decel="3.689200" delta="4.038000" />
<vType id="typegen_117" carFollowModel="IDM" tau="2.257200" minGap="64.490997" accel="1.674100" decel="4.450800" delta="4.009100" />
<vType id="typegen_118" carFollowModel="IDM" tau="1.618800" minGap="63.278999" accel="1.209800" decel="5.117200" delta="3.922300" />
<vType id="typegen_119" carFollowModel="IDM" tau="1.641600" minGap="64.389999" accel="0.934100" decel="5.450400" delta="4.356100" />
<vType id="typegen_120" carFollowModel="IDM" tau="2.143200" minGap="65.703003" accel="1.413000" decel="4.926800" delta="3.763300" />
<vType id="typegen_121" carFollowModel="IDM" tau="1.960800" minGap="59.743999" accel="1.093700" decel="5.521800" delta="3.734400" />
<vType id="typegen_122" carFollowModel="IDM" tau="1.527600" minGap="62.067001" accel="1.558100" decel="4.498400" delta="3.286100" />
<vType id="typegen_123" carFollowModel="IDM" tau="1.368000" minGap="64.894997" accel="1.224300" decel="4.379400" delta="4.486300" />
<vType id="typegen_124" carFollowModel="IDM" tau="0.752400" minGap="61.662998" accel="1.006700" decel="4.665000" delta="3.401800" />
<vType id="typegen_125" carFollowModel="IDM" tau="1.687200" minGap="67.723000" accel="2.022400" decel="4.260400" delta="4.370600" />
<vType id="typegen_126" carFollowModel="IDM" tau="2.827200" minGap="66.308998" accel="1.325900" decel="4.022400" delta="3.792200" />
<vType id="typegen_127" carFollowModel="IDM" tau="1.459200" minGap="59.643002" accel="1.151800" decel="4.712600" delta="3.806700" />
<vType id="typegen_128" carFollowModel="IDM" tau="1.938000" minGap="66.612000" accel="0.977700" decel="5.188600" delta="3.879000" />
<vType id="typegen_129" carFollowModel="IDM" tau="2.006400" minGap="58.532001" accel="0.992200" decel="3.951000" delta="4.081400" />
<vType id="typegen_130" carFollowModel="IDM" tau="2.097600" minGap="65.299004" accel="0.861600" decel="4.950600" delta="3.879000" />
<vType id="typegen_131" carFollowModel="IDM" tau="1.983600" minGap="60.956001" accel="1.122800" decel="5.426600" delta="4.471800" />
<vType id="typegen_132" carFollowModel="IDM" tau="0.934800" minGap="70.147003" accel="1.006700" decel="5.878800" delta="3.792200" />
<vType id="typegen_133" carFollowModel="IDM" tau="1.846800" minGap="58.127998" accel="1.035700" decel="4.117600" delta="4.486300" />
<vType id="typegen_134" carFollowModel="IDM" tau="2.485200" minGap="59.441002" accel="1.166300" decel="4.498400" delta="4.211500" />
<vType id="typegen_135" carFollowModel="IDM" tau="2.599200" minGap="61.258999" accel="1.224300" decel="6.235800" delta="4.327200" />
<vType id="typegen_136" carFollowModel="IDM" tau="2.690400" minGap="67.521004" accel="1.035700" decel="4.450800" delta="3.604200" />
<vType id="typegen_137" carFollowModel="IDM" tau="1.846800" minGap="61.662998" accel="0.890600" decel="5.093400" delta="4.283800" />
<vType id="typegen_138" carFollowModel="IDM" tau="1.755600" minGap="61.662998" accel="1.383900" decel="4.903000" delta="3.372900" />
<vType id="typegen_139" carFollowModel="IDM" tau="0.342000" minGap="61.360001" accel="1.471000" decel="4.617400" delta="3.835600" />
<vType id="typegen_140" carFollowModel="IDM" tau="1.413600" minGap="67.218002" accel="0.876100" decel="4.736400" delta="4.052500" />
<vType id="typegen_141" carFollowModel="IDM" tau="2.758800" minGap="63.784000" accel="1.093700" decel="4.189000" delta="4.052500" />
<vType id="typegen_142" carFollowModel="IDM" tau="2.280000" minGap="64.490997" accel="1.398400" decel="4.617400" delta="3.922300" />
<vType id="typegen_143" carFollowModel="IDM" tau="0.684000" minGap="63.986000" accel="1.006700" decel="5.736000" delta="3.893400" />
<vType id="typegen_144" carFollowModel="IDM" tau="2.622000" minGap="66.308998" accel="1.021200" decel="3.689200" delta="4.370600" />
<vType id="typegen_145" carFollowModel="IDM" tau="2.029200" minGap="62.369999" accel="1.383900" decel="5.236200" delta="3.676500" />
<vType id="typegen_146" carFollowModel="IDM" tau="1.664400" minGap="62.369999" accel="1.558100" decel="5.022000" delta="3.850000" />
<vType id="typegen_147" carFollowModel="IDM" tau="2.211600" minGap="64.592003" accel="1.442000" decel="5.307600" delta="4.457400" />
<vType id="typegen_148" carFollowModel="IDM" tau="2.622000" minGap="61.360001" accel="1.659600" decel="5.307600" delta="3.662100" />
<vType id="typegen_149" carFollowModel="IDM" tau="1.938000" minGap="64.289001" accel="1.514500" decel="5.593200" delta="3.763300" />
<vType id="typegen_150" carFollowModel="IDM" tau="2.667600" minGap="61.662998" accel="1.282400" decel="5.164800" delta="3.503000" />
<vType id="typegen_151" carFollowModel="IDM" tau="2.371200" minGap="65.197998" accel="1.325900" decel="3.974800" delta="3.936800" />
<vType id="typegen_152" carFollowModel="IDM" tau="2.530800" minGap="61.764000" accel="1.354900" decel="4.760200" delta="3.676500" />
<vType id="typegen_153" carFollowModel="IDM" tau="1.140000" minGap="58.936001" accel="0.992200" decel="5.260000" delta="3.806700" />
<vType id="typegen_154" carFollowModel="IDM" tau="1.276800" minGap="64.793999" accel="0.934100" decel="5.188600" delta="3.560800" />
<vType id="typegen_155" carFollowModel="IDM" tau="1.482000" minGap="63.178001" accel="0.745500" decel="5.045800" delta="4.153700" />
<vType id="typegen_156" carFollowModel="IDM" tau="2.508000" minGap="61.360001" accel="1.180800" decel="4.903000" delta="3.980200" />
<vType id="typegen_157" carFollowModel="IDM" tau="1.938000" minGap="59.945999" accel="1.122800" decel="3.260800" delta="4.095900" />
<vType id="typegen_158" carFollowModel="IDM" tau="3.009600" minGap="61.360001" accel="0.934100" decel="4.736400" delta="4.457400" />
<vType id="typegen_159" carFollowModel="IDM" tau="2.485200" minGap="66.814003" accel="0.774500" decel="5.664600" delta="4.182600" />
<vType id="typegen_160" carFollowModel="IDM" tau="1.527600" minGap="66.308998" accel="1.180800" decel="4.189000" delta="3.748800" />
<vType id="typegen_161" carFollowModel="IDM" tau="2.371200" minGap="63.682999" accel="0.774500" decel="3.927200" delta="3.965700" />
<vType id="typegen_162" carFollowModel="IDM" tau="2.394000" minGap="59.138000" accel="0.919600" decel="4.427000" delta="3.647600" />
<vType id="typegen_163" carFollowModel="IDM" tau="1.140000" minGap="67.319000" accel="1.180800" decel="3.689200" delta="3.821100" />
<vType id="typegen_164" carFollowModel="IDM" tau="2.462400" minGap="68.227997" accel="1.282400" decel="4.546000" delta="3.488500" />
<vType id="typegen_165" carFollowModel="IDM" tau="2.462400" minGap="60.956001" accel="1.442000" decel="3.713000" delta="3.719900" />
<vType id="typegen_166" carFollowModel="IDM" tau="2.462400" minGap="65.500999" accel="1.688600" decel="4.046200" delta="4.312800" />
<vType id="typegen_167" carFollowModel="IDM" tau="1.345200" minGap="66.814003" accel="1.413000" decel="5.141000" delta="4.341700" />
<vType id="typegen_168" carFollowModel="IDM" tau="1.345200" minGap="62.773998" accel="1.311400" decel="5.022000" delta="3.936800" />
<vType id="typegen_169" carFollowModel="IDM" tau="0.661200" minGap="60.956001" accel="0.977700" decel="5.022000" delta="4.168200" />
<vType id="typegen_170" carFollowModel="IDM" tau="1.915200" minGap="60.855000" accel="1.485500" decel="5.069600" delta="4.168200" />
<vType id="typegen_171" carFollowModel="IDM" tau="1.869600" minGap="66.612000" accel="1.006700" decel="4.189000" delta="4.168200" />
<vType id="typegen_172" carFollowModel="IDM" tau="0.980400" minGap="65.400002" accel="0.818000" decel="5.593200" delta="4.226000" />
<vType id="typegen_173" carFollowModel="IDM" tau="1.162800" minGap="65.400002" accel="1.079200" decel="4.498400" delta="3.965700" />
<vType id="typegen_174" carFollowModel="IDM" tau="2.667600" minGap="59.238998" accel="1.166300" decel="6.188200" delta="4.327200" />
<vType id="typegen_175" carFollowModel="IDM" tau="3.488400" minGap="67.419998" accel="1.413000" decel="4.379400" delta="3.647600" />
<vType id="typegen_176" carFollowModel="IDM" tau="1.231200" minGap="66.107002" accel="1.413000" decel="5.783600" delta="4.471800" />
<vType id="typegen_177" carFollowModel="IDM" tau="3.214800" minGap="60.249001" accel="1.079200" decel="4.688800" delta="3.792200" />
<vType id="typegen_178" carFollowModel="IDM" tau="2.097600" minGap="61.662998" accel="1.717700" decel="3.594000" delta="4.341700" />
<vType id="typegen_179" carFollowModel="IDM" tau="1.162800" minGap="66.814003" accel="1.006700" decel="4.308000" delta="4.009100" />
<vType id="typegen_180" carFollowModel="IDM" tau="2.211600" minGap="62.773998" accel="1.427500" decel="5.950200" delta="4.428400" />
<vType id="typegen_181" carFollowModel="IDM" tau="1.983600" minGap="67.419998" accel="1.253300" decel="4.522200" delta="3.879000" />
<vType id="typegen_182" carFollowModel="IDM" tau="1.824000" minGap="59.138000" accel="1.093700" decel="4.427000" delta="4.095900" />
<vType id="typegen_183" carFollowModel="IDM" tau="2.462400" minGap="60.451000" accel="0.905100" decel="5.688400" delta="3.691000" />
<vType id="typegen_184" carFollowModel="IDM" tau="1.755600" minGap="61.158001" accel="1.500000" decel="4.331800" delta="4.399500" />
<vType id="typegen_185" carFollowModel="IDM" tau="1.732800" minGap="67.015999" accel="1.354900" decel="5.045800" delta="4.254900" />
<vType id="typegen_186" carFollowModel="IDM" tau="2.029200" minGap="66.308998" accel="1.166300" decel="5.212400" delta="3.069200" />
<vType id="typegen_187" carFollowModel="IDM" tau="2.371200" minGap="66.410004" accel="1.383900" decel="4.450800" delta="3.893400" />
<vType id="typegen_188" carFollowModel="IDM" tau="1.413600" minGap="59.238998" accel="1.035700" decel="5.521800" delta="3.763300" />
<vType id="typegen_189" carFollowModel="IDM" tau="1.892400" minGap="67.521004" accel="1.093700" decel="5.069600" delta="4.804400" />
<vType id="typegen_190" carFollowModel="IDM" tau="2.074800" minGap="60.855000" accel="1.137300" decel="5.974000" delta="4.370600" />
<vType id="typegen_191" carFollowModel="IDM" tau="1.345200" minGap="62.773998" accel="0.832600" decel="5.498000" delta="4.052500" />
<vType id="typegen_192" carFollowModel="IDM" tau="2.302800" minGap="63.682999" accel="1.050200" decel="5.022000" delta="3.618700" />
<vType id="typegen_193" carFollowModel="IDM" tau="1.915200" minGap="65.703003" accel="1.021200" decel="4.498400" delta="4.399500" />
<vType id="typegen_194" carFollowModel="IDM" tau="2.713200" minGap="59.138000" accel="0.963100" decel="4.760200" delta="3.922300" />
<vType id="typegen_195" carFollowModel="IDM" tau="2.234400" minGap="61.158001" accel="0.847100" decel="4.617400" delta="3.951300" />
<vType id="typegen_196" carFollowModel="IDM" tau="2.325600" minGap="59.036999" accel="1.442000" decel="3.736800" delta="4.226000" />
<vType id="typegen_197" carFollowModel="IDM" tau="2.348400" minGap="60.956001" accel="1.238800" decel="4.712600" delta="3.922300" />
<vType id="typegen_198" carFollowModel="IDM" tau="1.390800" minGap="60.249001" accel="0.934100" decel="4.498400" delta="4.240500" />
<vType id="typegen_199" carFollowModel="IDM" tau="1.436400" minGap="61.360001" accel="0.977700" decel="4.260400" delta="3.647600" />
<vType id="typegen_200" carFollowModel="IDM" tau="2.804400" minGap="67.622002" accel="1.311400" decel="3.927200" delta="3.821100" />
<route edges="124433726 520996239 23217904 518877177 -102291 9146825 517170969 518455966 -102366 124433726 520996239 23217904 518877177 -102291 9146825 517170969 518455966 -102366 124433726 520996239 23217904 518877177 -102291 9146825 517170969 518455966 -102366" color="yellow" id="route_0"/>
<route edges="518877177 -102291 9146825 517170969 518455966 -102366 124433726 520996239 23217904" color="yellow" id="route_1"/>
<route edges="9146825 517170969 518455966 -102366 124433726 520996239 23217904 518877177 -102291" color="yellow" id="route_2"/>
<route edges="518455966 -102366 124433726 520996239 23217904 518877177 -102291 9146825 517170969" color="yellow" id="route_3"/>
<vehicle id="genveh_1" type="typegen_1" route="route_0" departSpeed="29.200001" depart="0" departPos="random" departLane="random" color="1,0,0"/>
<vehicle id="genveh_2" type="typegen_2" route="route_0" departSpeed="28.600000" depart="0" departPos="random" departLane="random" color="1,0,0"/>
<vehicle id="genveh_3" type="typegen_3" route="route_0" departSpeed="30.600000" depart="0" departPos="random" departLane="random" color="1,0,0"/>
<vehicle id="genveh_4" type="typegen_4" route="route_0" departSpeed="29.799999" depart="0" departPos="random" departLane="random" color="1,0,0"/>
<vehicle id="genveh_5" type="typegen_5" route="route_0" departSpeed="28.049999" depart="0" departPos="random" departLane="random" color="1,0,0"/>
<vehicle id="genveh_6" type="typegen_6" route="route_0" departSpeed="28.549999" depart="0" departPos="random" departLane="random" color="1,0,0"/>
<vehicle id="genveh_7" type="typegen_7" route="route_0" departSpeed="27.700001" depart="0" departPos="random" departLane="random" color="1,0,0"/>
<vehicle id="genveh_8" type="typegen_8" route="route_0" departSpeed="29.400000" depart="0" departPos="random" departLane="random" color="1,0,0"/>
<vehicle id="genveh_9" type="typegen_9" route="route_0" departSpeed="29.200001" depart="0" departPos="random" departLane="random" color="1,0,0"/>
<vehicle id="genveh_10" type="typegen_10" route="route_0" departSpeed="28.200001" depart="0" departPos="random" departLane="random" color="1,0,0"/>
<vehicle id="genveh_11" type="typegen_11" route="route_0" departSpeed="30.500000" depart="0" departPos="random" departLane="random" color="1,0,0"/>
<vehicle id="genveh_12" type="typegen_12" route="route_0" departSpeed="27.850000" depart="0" departPos="random" departLane="random" color="1,0,0"/>
<vehicle id="genveh_13" type="typegen_13" route="route_0" departSpeed="28.650000" depart="0" departPos="random" departLane="random" color="1,0,0"/>
<vehicle id="genveh_14" type="typegen_14" route="route_0" departSpeed="30.000000" depart="0" departPos="random" departLane="random" color="1,0,0"/>
<vehicle id="genveh_15" type="typegen_15" route="route_0" departSpeed="28.799999" depart="0" departPos="random" departLane="random" color="1,0,0"/>
<vehicle id="genveh_16" type="typegen_16" route="route_0" departSpeed="30.900000" depart="0" departPos="random" departLane="random" color="1,0,0"/>
<vehicle id="genveh_17" type="typegen_17" route="route_0" departSpeed="28.400000" depart="0" departPos="random" departLane="random" color="1,0,0"/>
<vehicle id="genveh_18" type="typegen_18" route="route_0" departSpeed="29.799999" depart="0" departPos="random" departLane="random" color="1,0,0"/>