<?xml version="1.0" encoding="UTF-8"?>

<!-- generated on 2021-11-12 14:42:14 by Eclipse SUMO netedit Version 1.10.0
<configuration xmlns:xsi="http://www.w3.org/2001/XMLSchema-instance" xsi:noNamespaceSchemaLocation="http://sumo.dlr.de/xsd/netconvertConfiguration.xsd">

    <input>
        <sumo-net-file value="C:\Users\peiliesg\Dropbox%20(University%20of%20Michigan)\Simulation-software-architecture\sumo_gym\urban_route_files\urban.net.xml"/>
    </input>

    <output>
        <output-file value="C:\Users\peiliesg\Dropbox%20(University%20of%20Michigan)\Simulation-software-architecture\sumo_gym\urban_route_files\urban.net.xml"/>
    </output>

    <processing>
        <geometry.min-radius.fix.railways value="false"/>
        <geometry.max-grade.fix value="false"/>
        <offset.disable-normalization value="true"/>
        <lefthand value="false"/>
    </processing>

    <junctions>
        <no-turnarounds value="true"/>
        <junctions.corner-detail value="5"/>
        <junctions.limit-turn-speed value="5.5"/>
        <rectangular-lane-cut value="false"/>
    </junctions>

    <pedestrian>
        <walkingareas value="false"/>
    </pedestrian>

    <report>
        <aggregate-warnings value="5"/>
    </report>

</configuration>
-->

<net version="1.9" junctionCornerDetail="5" limitTurnSpeed="5.50" xmlns:xsi="http://www.w3.org/2001/XMLSchema-instance" xsi:noNamespaceSchemaLocation="http://sumo.dlr.de/xsd/net_file.xsd">

    <location netOffset="-463134.25,-3157390.67" convBoundary="2.82,320.29,2033.49,1144.88" origBoundary="-81.376894,28.542838,-81.352321,28.560359" projParameter="+proj=utm +zone=17 +ellps=WGS84 +datum=WGS84 +units=m +no_defs"/>

    <type id="highway.bridleway" priority="1" numLanes="1" speed="2.78" allow="pedestrian" oneway="1" width="2.00"/>
    <type id="highway.bus_guideway" priority="1" numLanes="1" speed="27.78" allow="bus" oneway="1"/>
    <type id="highway.cycleway" priority="1" numLanes="1" speed="8.33" allow="bicycle" oneway="1" width="1.00"/>
    <type id="highway.footway" priority="1" numLanes="1" speed="2.78" allow="pedestrian" oneway="1" width="2.00"/>
    <type id="highway.ford" priority="1" numLanes="1" speed="2.78" allow="army" oneway="1"/>
    <type id="highway.living_street" priority="2" numLanes="1" speed="2.78" disallow="tram rail_urban rail rail_electric rail_fast ship" oneway="1"/>
    <type id="highway.motorway" priority="14" numLanes="2" speed="39.44" allow="private emergency authority army vip passenger hov taxi bus coach delivery truck trailer motorcycle evehicle custom1 custom2" oneway="1"/>
    <type id="highway.motorway_link" priority="9" numLanes="1" speed="22.22" allow="private emergency authority army vip passenger hov taxi bus coach delivery truck trailer motorcycle evehicle custom1 custom2" oneway="1"/>
    <type id="highway.path" priority="1" numLanes="1" speed="2.78" allow="pedestrian bicycle" oneway="1" width="2.00"/>
    <type id="highway.pedestrian" priority="1" numLanes="1" speed="2.78" allow="pedestrian" oneway="1" width="2.00"/>
    <type id="highway.primary" priority="12" numLanes="2" speed="27.78" disallow="tram rail_urban rail rail_electric rail_fast ship" oneway="1"/>
    <type id="highway.primary_link" priority="7" numLanes="1" speed="22.22" disallow="tram rail_urban rail rail_electric rail_fast ship" oneway="1"/>
    <type id="highway.raceway" priority="15" numLanes="2" speed="83.33" allow="vip" oneway="1"/>
    <type id="highway.residential" priority="3" numLanes="1" speed="13.89" disallow="tram rail_urban rail rail_electric rail_fast ship" oneway="1"/>
    <type id="highway.secondary" priority="11" numLanes="1" speed="27.78" disallow="tram rail_urban rail rail_electric rail_fast ship" oneway="1"/>
    <type id="highway.secondary_link" priority="6" numLanes="1" speed="22.22" disallow="tram rail_urban rail rail_electric rail_fast ship" oneway="1"/>
    <type id="highway.service" priority="1" numLanes="1" speed="5.56" allow="pedestrian delivery bicycle" oneway="1"/>
    <type id="highway.stairs" priority="1" numLanes="1" speed="1.39" allow="pedestrian" oneway="1" width="2.00"/>
    <type id="highway.step" priority="1" numLanes="1" speed="1.39" allow="pedestrian" oneway="1" width="2.00"/>
    <type id="highway.steps" priority="1" numLanes="1" speed="1.39" allow="pedestrian" oneway="1" width="2.00"/>
    <type id="highway.tertiary" priority="10" numLanes="1" speed="22.22" disallow="tram rail_urban rail rail_electric rail_fast ship" oneway="1"/>
    <type id="highway.tertiary_link" priority="5" numLanes="1" speed="22.22" disallow="tram rail_urban rail rail_electric rail_fast ship" oneway="1"/>
    <type id="highway.track" priority="1" numLanes="1" speed="5.56" allow="pedestrian motorcycle moped bicycle" oneway="1"/>
    <type id="highway.trunk" priority="13" numLanes="2" speed="27.78" disallow="pedestrian bicycle tram rail_urban rail rail_electric rail_fast ship" oneway="1"/>
    <type id="highway.trunk_link" priority="8" numLanes="1" speed="22.22" disallow="pedestrian bicycle tram rail_urban rail rail_electric rail_fast ship" oneway="1"/>
    <type id="highway.unclassified" priority="4" numLanes="1" speed="13.89" disallow="tram rail_urban rail rail_electric rail_fast ship" oneway="1"/>
    <type id="highway.unsurfaced" priority="1" numLanes="1" speed="8.33" disallow="tram rail_urban rail rail_electric rail_fast ship" oneway="1"/>
    <type id="railway.highspeed" priority="21" numLanes="1" speed="69.44" allow="rail_fast" oneway="1"/>
    <type id="railway.light_rail" priority="19" numLanes="1" speed="27.78" allow="rail_urban" oneway="1"/>
    <type id="railway.preserved" priority="16" numLanes="1" speed="27.78" allow="rail" oneway="1"/>
    <type id="railway.rail" priority="20" numLanes="1" speed="44.44" allow="rail" oneway="1"/>
    <type id="railway.subway" priority="18" numLanes="1" speed="27.78" allow="rail_urban" oneway="1"/>
    <type id="railway.tram" priority="17" numLanes="1" speed="13.89" allow="tram" oneway="1"/>

    <edge id=":99475166_0" function="internal">
        <lane id=":99475166_0_0" index="0" disallow="tram rail_urban rail rail_electric rail_fast ship" speed="6.97" length="10.41" shape="23.76,527.54 20.59,527.88 18.31,528.92 16.92,530.66 16.44,533.10"/>
    </edge>
    <edge id=":99475166_1" function="internal">
        <lane id=":99475166_1_0" index="0" disallow="tram rail_urban rail rail_electric rail_fast ship" speed="8.22" length="19.16" shape="23.76,527.54 17.76,526.82 14.08,524.68 12.74,521.13 13.72,516.16"/>
    </edge>
    <edge id=":99475166_2" function="internal">
        <lane id=":99475166_2_0" index="0" disallow="tram rail_urban rail rail_electric rail_fast ship" speed="5.87" length="9.12" shape="19.70,518.43 19.12,521.01 19.60,522.86 21.15,523.97 23.77,524.34"/>
    </edge>
    <edge id=":99475166_3" function="internal">
        <lane id=":99475166_3_0" index="0" disallow="tram rail_urban rail rail_electric rail_fast ship" speed="12.54" length="15.74" shape="19.70,518.43 18.08,522.63 17.11,525.58 16.62,528.63 16.44,533.10"/>
        <lane id=":99475166_3_1" index="1" disallow="tram rail_urban rail rail_electric rail_fast ship" speed="12.54" length="15.74" shape="16.71,517.29 14.97,521.80 13.94,524.98 13.43,528.25 13.24,533.06"/>
    </edge>
    <edge id=":99475166_5" function="internal">
        <lane id=":99475166_5_0" index="0" speed="13.89" length="17.97" shape="6.84,532.97 7.04,527.50 7.61,523.77 8.77,520.16 10.73,515.03"/>
        <lane id=":99475166_5_1" index="1" speed="13.89" length="17.97" shape="10.04,533.01 10.24,527.88 10.78,524.38 11.88,520.98 13.72,516.16"/>
    </edge>
    <edge id=":99475173_0" function="internal">
        <lane id=":99475173_0_0" index="0" disallow="pedestrian bicycle tram rail_urban rail rail_electric rail_fast ship" speed="8.96" length="18.26" shape="9.32,1149.68 4.36,1148.97 0.83,1146.84 -1.25,1143.29 -1.89,1138.31"/>
        <lane id=":99475173_0_1" index="1" disallow="pedestrian bicycle tram rail_urban rail rail_electric rail_fast ship" speed="7.65" length="13.04" shape="9.32,1146.48 5.77,1145.97 3.26,1144.45 1.77,1141.91 1.31,1138.36"/>
    </edge>
    <edge id=":99475173_2" function="internal">
        <lane id=":99475173_2_0" index="0" disallow="pedestrian bicycle tram rail_urban rail rail_electric rail_fast ship" speed="3.90" length="2.61" shape="7.71,1138.45 7.80,1139.16 8.10,1139.67 8.60,1139.97 9.31,1140.08"/>
        <lane id=":99475173_2_1" index="1" disallow="pedestrian bicycle tram rail_urban rail rail_electric rail_fast ship" speed="6.08" length="7.83" shape="4.51,1138.41 4.79,1140.54 5.68,1142.06 7.19,1142.97 9.32,1143.28"/>
    </edge>
    <edge id=":99488102_0" function="internal">
        <lane id=":99488102_0_0" index="0" disallow="tram rail_urban rail rail_electric rail_fast ship" speed="6.54" length="9.11" shape="1216.92,337.79 1216.57,335.30 1215.52,333.52 1213.77,332.44 1211.33,332.07"/>
    </edge>
    <edge id=":99488102_1" function="internal">
        <lane id=":99488102_1_0" index="0" disallow="tram rail_urban rail rail_electric rail_fast ship" speed="9.24" length="19.43" shape="1220.12,337.79 1220.87,332.52 1223.14,328.76 1226.92,326.54 1232.20,325.84"/>
    </edge>
    <edge id=":99488102_2" function="internal">
        <lane id=":99488102_2_0" index="0" disallow="tram rail_urban rail rail_electric rail_fast ship" speed="6.49" length="9.03" shape="1232.13,332.24 1229.68,332.56 1227.92,333.60 1226.87,335.34 1226.52,337.80"/>
    </edge>
    <edge id=":99488102_3" function="internal">
        <lane id=":99488102_3_0" index="0" disallow="tram rail_urban rail rail_electric rail_fast ship" speed="15.65" length="20.82" shape="1232.13,332.24 1211.33,332.07"/>
        <lane id=":99488102_3_1" index="1" disallow="tram rail_urban rail rail_electric rail_fast ship" speed="15.65" length="20.82" shape="1232.17,329.04 1211.34,328.87"/>
    </edge>
    <edge id=":99488102_5" function="internal">
        <lane id=":99488102_5_0" index="0" disallow="tram rail_urban rail rail_electric rail_fast ship" speed="15.65" length="20.85" shape="1211.38,322.47 1232.23,322.64"/>
        <lane id=":99488102_5_1" index="1" disallow="tram rail_urban rail rail_electric rail_fast ship" speed="15.65" length="20.85" shape="1211.36,325.67 1232.20,325.84"/>
    </edge>
    <edge id=":99488102_7" function="internal">
        <lane id=":99488102_7_0" index="0" disallow="tram rail_urban rail rail_electric rail_fast ship" speed="9.86" length="8.70" shape="1211.36,325.67 1217.99,326.46 1219.82,327.34"/>
    </edge>
    <edge id=":99488102_8" function="internal">
        <lane id=":99488102_8_0" index="0" disallow="tram rail_urban rail rail_electric rail_fast ship" speed="9.86" length="13.32" shape="1219.82,327.34 1222.73,328.75 1225.57,332.52 1226.52,337.80"/>
    </edge>
    <edge id=":99536759_0" function="internal">
        <lane id=":99536759_0_0" index="0" disallow="tram rail_urban rail rail_electric rail_fast ship" speed="8.96" length="17.96" shape="2027.23,332.22 2032.08,333.00 2035.53,335.14 2037.58,338.65 2038.23,343.52"/>
        <lane id=":99536759_0_1" index="1" disallow="tram rail_urban rail rail_electric rail_fast ship" speed="7.66" length="12.83" shape="2027.17,335.42 2030.64,335.98 2033.10,337.51 2034.57,340.01 2035.03,343.49"/>
    </edge>
    <edge id=":99536759_2" function="internal">
        <lane id=":99536759_2_0" index="0" disallow="tram rail_urban rail rail_electric rail_fast ship" speed="3.90" length="2.57" shape="2028.63,343.43 2028.54,342.74 2028.25,342.24 2027.75,341.93 2027.06,341.82"/>
        <lane id=":99536759_2_1" index="1" disallow="tram rail_urban rail rail_electric rail_fast ship" speed="6.08" length="7.70" shape="2031.83,343.46 2031.55,341.37 2030.67,339.87 2029.20,338.95 2027.12,338.62"/>
    </edge>
    <edge id=":99545626_0" function="internal">
        <lane id=":99545626_0_0" index="0" disallow="pedestrian bicycle tram rail_urban rail rail_electric rail_fast ship" speed="8.96" length="18.02" shape="2030.89,1135.02 2030.15,1139.90 2028.02,1143.38 2024.51,1145.45 2019.62,1146.12"/>
        <lane id=":99545626_0_1" index="1" disallow="pedestrian bicycle tram rail_urban rail rail_electric rail_fast ship" speed="7.66" length="12.87" shape="2027.69,1134.99 2027.16,1138.48 2025.64,1140.96 2023.13,1142.44 2019.64,1142.92"/>
    </edge>
    <edge id=":99545626_2" function="internal">
        <lane id=":99545626_2_0" index="0" disallow="pedestrian bicycle tram rail_urban rail rail_electric rail_fast ship" speed="3.90" length="2.57" shape="2019.68,1136.52 2020.38,1136.42 2020.88,1136.13 2021.18,1135.63 2021.29,1134.93"/>
        <lane id=":99545626_2_1" index="1" disallow="pedestrian bicycle tram rail_urban rail rail_electric rail_fast ship" speed="6.08" length="7.72" shape="2019.66,1139.72 2021.76,1139.43 2023.26,1138.55 2024.17,1137.06 2024.49,1134.96"/>
    </edge>
    <edge id=":99545629_0" function="internal">
        <lane id=":99545629_0_0" index="0" disallow="pedestrian bicycle tram rail_urban rail rail_electric rail_fast ship" speed="22.35" length="14.06" shape="1629.30,1143.09 1615.28,1143.10"/>
        <lane id=":99545629_0_1" index="1" disallow="pedestrian bicycle tram rail_urban rail rail_electric rail_fast ship" speed="22.35" length="14.06" shape="1629.34,1139.89 1615.23,1139.90"/>
    </edge>
    <edge id=":99545629_2" function="internal">
        <lane id=":99545629_2_0" index="0" disallow="pedestrian bicycle tram rail_urban rail rail_electric rail_fast ship" speed="8.67" length="5.13" shape="1629.34,1139.89 1625.54,1139.10 1624.58,1138.30"/>
    </edge>
    <edge id=":99545629_8" function="internal">
        <lane id=":99545629_8_0" index="0" disallow="pedestrian bicycle tram rail_urban rail rail_electric rail_fast ship" speed="8.67" length="11.62" shape="1624.58,1138.30 1622.83,1136.83 1621.22,1133.08 1620.70,1127.85"/>
    </edge>
    <edge id=":99545629_3" function="internal">
        <lane id=":99545629_3_0" index="0" disallow="pedestrian bicycle tram rail_urban rail rail_electric rail_fast ship" speed="6.51" length="8.97" shape="1623.90,1127.87 1624.23,1130.30 1625.27,1132.05 1627.00,1133.12 1629.42,1133.49"/>
    </edge>
    <edge id=":99545629_4" function="internal">
        <lane id=":99545629_4_0" index="0" disallow="pedestrian bicycle tram rail_urban rail rail_electric rail_fast ship" speed="8.70" length="16.72" shape="1623.90,1127.87 1623.33,1133.09 1621.70,1136.83 1619.00,1139.10 1615.23,1139.90"/>
    </edge>
    <edge id=":99545629_5" function="internal">
        <lane id=":99545629_5_0" index="0" disallow="pedestrian bicycle tram rail_urban rail rail_electric rail_fast ship" speed="6.54" length="9.00" shape="1615.14,1133.50 1617.56,1133.12 1619.29,1132.05 1620.34,1130.30 1620.70,1127.85"/>
    </edge>
    <edge id=":99545629_6" function="internal">
        <lane id=":99545629_6_0" index="0" disallow="pedestrian bicycle tram rail_urban rail rail_electric rail_fast ship" speed="22.35" length="14.24" shape="1615.14,1133.50 1629.42,1133.49"/>
        <lane id=":99545629_6_1" index="1" disallow="pedestrian bicycle tram rail_urban rail rail_electric rail_fast ship" speed="22.35" length="14.24" shape="1615.18,1136.70 1629.38,1136.69"/>
    </edge>
    <edge id=":99545634_0" function="internal">
        <lane id=":99545634_0_0" index="0" disallow="pedestrian bicycle tram rail_urban rail rail_electric rail_fast ship" speed="22.35" length="20.92" shape="1226.88,1148.16 1205.95,1148.28"/>
    </edge>
    <edge id=":99545634_1" function="internal">
        <lane id=":99545634_1_0" index="0" disallow="pedestrian bicycle tram rail_urban rail rail_electric rail_fast ship" speed="10.33" length="13.55" shape="1226.88,1148.16 1220.14,1147.28 1215.34,1144.45 1214.73,1143.43"/>
    </edge>
    <edge id=":99545634_2" function="internal">
        <lane id=":99545634_2_0" index="0" disallow="pedestrian bicycle tram rail_urban rail rail_electric rail_fast ship" speed="22.35" length="20.89" shape="1226.84,1144.96 1205.95,1145.08"/>
    </edge>
    <edge id=":99545634_3" function="internal">
        <lane id=":99545634_3_0" index="0" disallow="pedestrian bicycle tram rail_urban rail rail_electric rail_fast ship" speed="9.23" length="7.06" shape="1226.84,1144.96 1221.53,1144.26 1220.06,1143.40"/>
    </edge>
    <edge id=":99545634_10" function="internal">
        <lane id=":99545634_10_0" index="0" disallow="pedestrian bicycle tram rail_urban rail rail_electric rail_fast ship" speed="10.33" length="11.14" shape="1214.73,1143.43 1212.48,1139.68 1211.56,1132.97"/>
    </edge>
    <edge id=":99545634_11" function="internal">
        <lane id=":99545634_11_0" index="0" disallow="pedestrian bicycle tram rail_urban rail rail_electric rail_fast ship" speed="9.23" length="12.42" shape="1220.06,1143.40 1217.74,1142.03 1215.49,1138.27 1214.76,1132.98"/>
    </edge>
    <edge id=":99545634_4" function="internal">
        <lane id=":99545634_4_0" index="0" disallow="pedestrian bicycle tram rail_urban rail rail_electric rail_fast ship" speed="6.47" length="9.04" shape="1221.16,1133.00 1221.50,1135.46 1222.55,1137.20 1224.30,1138.24 1226.77,1138.56"/>
    </edge>
    <edge id=":99545634_5" function="internal">
        <lane id=":99545634_5_0" index="0" disallow="pedestrian bicycle tram rail_urban rail rail_electric rail_fast ship" speed="10.40" length="24.55" shape="1221.16,1133.00 1220.17,1139.68 1217.31,1144.46 1212.57,1147.33 1205.95,1148.28"/>
    </edge>
    <edge id=":99545634_6" function="internal">
        <lane id=":99545634_6_0" index="0" disallow="pedestrian bicycle tram rail_urban rail rail_electric rail_fast ship" speed="7.97" length="14.26" shape="1217.96,1132.99 1218.49,1136.87 1220.14,1139.62 1222.91,1141.25 1226.80,1141.76"/>
    </edge>
    <edge id=":99545634_7" function="internal">
        <lane id=":99545634_7_0" index="0" disallow="pedestrian bicycle tram rail_urban rail rail_electric rail_fast ship" speed="9.29" length="19.41" shape="1217.96,1132.99 1217.18,1138.28 1214.92,1142.06 1211.18,1144.33 1205.95,1145.08"/>
    </edge>
    <edge id=":99545634_8" function="internal">
        <lane id=":99545634_8_0" index="0" disallow="pedestrian bicycle tram rail_urban rail rail_electric rail_fast ship" speed="22.35" length="20.84" shape="1205.95,1138.68 1226.77,1138.56"/>
        <lane id=":99545634_8_1" index="1" disallow="pedestrian bicycle tram rail_urban rail rail_electric rail_fast ship" speed="22.35" length="20.84" shape="1205.95,1141.88 1226.80,1141.76"/>
    </edge>
    <edge id=":99575503_0" function="internal">
        <lane id=":99575503_0_0" index="0" disallow="tram rail_urban rail rail_electric rail_fast ship" speed="6.52" length="9.04" shape="1232.03,533.31 1229.57,533.65 1227.82,534.70 1226.76,536.45 1226.39,538.90"/>
    </edge>
    <edge id=":99575503_1" function="internal">
        <lane id=":99575503_1_0" index="0" disallow="tram rail_urban rail rail_electric rail_fast ship" speed="22.22" length="20.82" shape="1232.03,533.31 1211.21,533.20"/>
    </edge>
    <edge id=":99575503_2" function="internal">
        <lane id=":99575503_2_0" index="0" disallow="tram rail_urban rail rail_electric rail_fast ship" speed="8.69" length="7.89" shape="1232.03,533.31 1226.78,532.74 1224.39,531.67"/>
    </edge>
    <edge id=":99575503_14" function="internal">
        <lane id=":99575503_14_0" index="0" disallow="tram rail_urban rail rail_electric rail_fast ship" speed="8.69" length="8.99" shape="1224.39,531.67 1223.04,531.07 1220.79,528.30 1220.04,524.43"/>
    </edge>
    <edge id=":99575503_3" function="internal">
        <lane id=":99575503_3_0" index="0" disallow="tram rail_urban rail rail_electric rail_fast ship" speed="6.53" length="9.09" shape="1226.44,524.43 1226.79,526.91 1227.84,528.68 1229.59,529.75 1232.04,530.11"/>
    </edge>
    <edge id=":99575503_4" function="internal">
        <lane id=":99575503_4_0" index="0" disallow="tram rail_urban rail rail_electric rail_fast ship" speed="13.41" length="14.46" shape="1226.44,524.43 1226.39,538.90"/>
        <lane id=":99575503_4_1" index="1" disallow="tram rail_urban rail rail_electric rail_fast ship" speed="13.41" length="14.46" shape="1223.24,524.43 1223.19,538.88"/>
    </edge>
    <edge id=":99575503_6" function="internal">
        <lane id=":99575503_6_0" index="0" disallow="tram rail_urban rail rail_electric rail_fast ship" speed="8.66" length="5.30" shape="1223.24,524.43 1222.49,528.30 1221.63,529.35"/>
    </edge>
    <edge id=":99575503_15" function="internal">
        <lane id=":99575503_15_0" index="0" disallow="tram rail_urban rail rail_electric rail_fast ship" speed="8.66" length="11.58" shape="1221.63,529.35 1220.23,531.05 1216.47,532.68 1211.21,533.20"/>
    </edge>
    <edge id=":99575503_7" function="internal">
        <lane id=":99575503_7_0" index="0" disallow="tram rail_urban rail rail_electric rail_fast ship" speed="6.49" length="9.03" shape="1211.23,530.00 1213.69,529.67 1215.44,528.63 1216.49,526.88 1216.84,524.43"/>
    </edge>
    <edge id=":99575503_8" function="internal">
        <lane id=":99575503_8_0" index="0" disallow="tram rail_urban rail rail_electric rail_fast ship" speed="22.22" length="20.81" shape="1211.23,530.00 1232.04,530.11"/>
    </edge>
    <edge id=":99575503_9" function="internal">
        <lane id=":99575503_9_0" index="0" disallow="tram rail_urban rail rail_electric rail_fast ship" speed="8.68" length="7.88" shape="1211.23,530.00 1216.49,530.59 1218.85,531.64"/>
    </edge>
    <edge id=":99575503_16" function="internal">
        <lane id=":99575503_16_0" index="0" disallow="tram rail_urban rail rail_electric rail_fast ship" speed="8.68" length="8.99" shape="1218.85,531.64 1220.23,532.26 1222.47,535.03 1223.19,538.88"/>
    </edge>
    <edge id=":99575503_10" function="internal">
        <lane id=":99575503_10_0" index="0" disallow="tram rail_urban rail rail_electric rail_fast ship" speed="6.51" length="9.05" shape="1216.79,538.84 1216.46,536.39 1215.42,534.63 1213.67,533.57 1211.21,533.20"/>
    </edge>
    <edge id=":99575503_11" function="internal">
        <lane id=":99575503_11_0" index="0" disallow="tram rail_urban rail rail_electric rail_fast ship" speed="13.41" length="14.42" shape="1216.79,538.84 1216.84,524.43"/>
        <lane id=":99575503_11_1" index="1" disallow="tram rail_urban rail rail_electric rail_fast ship" speed="13.41" length="14.42" shape="1219.99,538.86 1220.04,524.43"/>
    </edge>
    <edge id=":99575503_13" function="internal">
        <lane id=":99575503_13_0" index="0" disallow="tram rail_urban rail rail_electric rail_fast ship" speed="8.68" length="5.24" shape="1219.99,538.86 1220.77,535.01 1221.61,534.00"/>
    </edge>
    <edge id=":99575503_17" function="internal">
        <lane id=":99575503_17_0" index="0" disallow="tram rail_urban rail rail_electric rail_fast ship" speed="8.68" length="11.61" shape="1221.61,534.00 1223.03,532.28 1226.79,530.64 1232.04,530.11"/>
    </edge>
    <edge id=":99577631_0" function="internal">
        <lane id=":99577631_0_0" index="0" disallow="tram rail_urban rail rail_electric rail_fast ship" speed="6.48" length="9.03" shape="1636.34,336.52 1633.88,336.82 1632.12,337.85 1631.06,339.58 1630.69,342.04"/>
    </edge>
    <edge id=":99577631_1" function="internal">
        <lane id=":99577631_1_0" index="0" disallow="tram rail_urban rail rail_electric rail_fast ship" speed="15.65" length="14.42" shape="1636.34,336.52 1621.93,336.31"/>
        <lane id=":99577631_1_1" index="1" disallow="tram rail_urban rail rail_electric rail_fast ship" speed="15.65" length="14.42" shape="1636.40,333.32 1621.97,333.11"/>
    </edge>
    <edge id=":99577631_3" function="internal">
        <lane id=":99577631_3_0" index="0" disallow="tram rail_urban rail rail_electric rail_fast ship" speed="15.65" length="14.47" shape="1622.03,326.72 1636.51,326.92"/>
        <lane id=":99577631_3_1" index="1" disallow="tram rail_urban rail rail_electric rail_fast ship" speed="15.65" length="14.47" shape="1622.00,329.92 1636.46,330.12"/>
    </edge>
    <edge id=":99577631_5" function="internal">
        <lane id=":99577631_5_0" index="0" disallow="tram rail_urban rail rail_electric rail_fast ship" speed="8.69" length="5.28" shape="1622.00,329.92 1625.83,330.71 1626.88,331.58"/>
    </edge>
    <edge id=":99577631_8" function="internal">
        <lane id=":99577631_8_0" index="0" disallow="tram rail_urban rail rail_electric rail_fast ship" speed="8.69" length="11.59" shape="1626.88,331.58 1628.56,332.99 1630.18,336.77 1630.69,342.04"/>
    </edge>
    <edge id=":99577631_6" function="internal">
        <lane id=":99577631_6_0" index="0" disallow="tram rail_urban rail rail_electric rail_fast ship" speed="6.53" length="9.07" shape="1627.49,342.01 1627.16,339.54 1626.12,337.77 1624.38,336.69 1621.93,336.31"/>
    </edge>
    <edge id=":99577631_7" function="internal">
        <lane id=":99577631_7_0" index="0" disallow="tram rail_urban rail rail_electric rail_fast ship" speed="8.65" length="16.91" shape="1627.49,342.01 1628.08,336.75 1629.77,333.01 1632.56,330.80 1636.46,330.12"/>
    </edge>
    <edge id=":99577635_0" function="internal">
        <lane id=":99577635_0_0" index="0" disallow="tram rail_urban rail rail_electric rail_fast ship" speed="17.81" length="14.42" shape="1629.43,526.47 1629.30,540.89"/>
    </edge>
    <edge id=":99577635_1" function="internal">
        <lane id=":99577635_1_0" index="0" disallow="tram rail_urban rail rail_electric rail_fast ship" speed="8.02" length="5.94" shape="1629.43,526.47 1628.85,530.31 1627.78,532.07"/>
    </edge>
    <edge id=":99577635_2" function="internal">
        <lane id=":99577635_2_0" index="0" disallow="tram rail_urban rail rail_electric rail_fast ship" speed="3.65" length="2.34" shape="1629.43,526.47 1628.62,527.67 1627.82,528.06"/>
    </edge>
    <edge id=":99577635_9" function="internal">
        <lane id=":99577635_9_0" index="0" disallow="tram rail_urban rail rail_electric rail_fast ship" speed="8.02" length="8.27" shape="1627.78,532.07 1627.18,533.05 1624.41,534.69 1620.55,535.22"/>
    </edge>
    <edge id=":99577635_10" function="internal">
        <lane id=":99577635_10_0" index="0" disallow="tram rail_urban rail rail_electric rail_fast ship" speed="3.65" length="2.34" shape="1627.82,528.06 1627.02,527.65 1626.23,526.45"/>
    </edge>
    <edge id=":99577635_3" function="internal">
        <lane id=":99577635_3_0" index="0" disallow="tram rail_urban rail rail_electric rail_fast ship" speed="6.52" length="9.06" shape="1620.57,532.02 1623.03,531.68 1624.80,530.64 1625.86,528.90 1626.23,526.45"/>
    </edge>
    <edge id=":99577635_4" function="internal">
        <lane id=":99577635_4_0" index="0" disallow="tram rail_urban rail rail_electric rail_fast ship" speed="7.99" length="14.22" shape="1620.57,532.02 1624.42,532.59 1627.17,534.26 1628.79,537.02 1629.30,540.89"/>
    </edge>
    <edge id=":99577635_5" function="internal">
        <lane id=":99577635_5_0" index="0" disallow="tram rail_urban rail rail_electric rail_fast ship" speed="3.65" length="2.56" shape="1620.57,532.02 1621.76,532.83 1622.16,533.63 1622.06,533.82"/>
    </edge>
    <edge id=":99577635_11" function="internal">
        <lane id=":99577635_11_0" index="0" disallow="tram rail_urban rail rail_electric rail_fast ship" speed="3.65" length="2.11" shape="1622.06,533.82 1621.76,534.43 1620.55,535.22"/>
    </edge>
    <edge id=":99577635_6" function="internal">
        <lane id=":99577635_6_0" index="0" disallow="tram rail_urban rail rail_electric rail_fast ship" speed="6.49" length="9.03" shape="1626.10,540.85 1625.78,538.40 1624.74,536.64 1623.00,535.58 1620.55,535.22"/>
    </edge>
    <edge id=":99577635_7" function="internal">
        <lane id=":99577635_7_0" index="0" disallow="tram rail_urban rail rail_electric rail_fast ship" speed="17.81" length="14.41" shape="1626.10,540.85 1626.23,526.45"/>
    </edge>
    <edge id=":99577635_8" function="internal">
        <lane id=":99577635_8_0" index="0" disallow="tram rail_urban rail rail_electric rail_fast ship" speed="3.65" length="2.34" shape="1626.10,540.85 1626.91,539.66 1627.72,539.27"/>
    </edge>
    <edge id=":99577635_12" function="internal">
        <lane id=":99577635_12_0" index="0" disallow="tram rail_urban rail rail_electric rail_fast ship" speed="3.65" length="2.34" shape="1627.72,539.27 1628.51,539.68 1629.30,540.89"/>
    </edge>
    <edge id=":99585374_0" function="internal">
        <lane id=":99585374_0_0" index="0" disallow="tram rail_urban rail rail_electric rail_fast ship" speed="3.96" length="1.96" shape="94.05,325.12 93.54,325.18 93.12,325.37 92.79,325.69 92.54,326.15"/>
        <lane id=":99585374_0_1" index="1" disallow="tram rail_urban rail rail_electric rail_fast ship" speed="6.19" length="5.87" shape="94.07,321.92 92.53,322.10 91.27,322.68 90.28,323.65 89.55,325.01"/>
    </edge>
    <edge id=":99585374_2" function="internal">
        <lane id=":99585374_2_0" index="0" disallow="tram rail_urban rail rail_electric rail_fast ship" speed="9.13" length="13.69" shape="83.57,322.75 85.27,319.57 87.59,317.30 90.53,315.95 94.10,315.52"/>
        <lane id=":99585374_2_1" index="1" disallow="tram rail_urban rail rail_electric rail_fast ship" speed="7.80" length="9.77" shape="86.57,323.88 87.78,321.61 89.43,319.99 91.54,319.03 94.09,318.72"/>
    </edge>
    <edge id=":99589698_0" function="internal">
        <lane id=":99589698_0_0" index="0" disallow="tram rail_urban rail rail_electric rail_fast ship" speed="6.53" length="9.05" shape="824.91,329.93 822.46,330.27 820.70,331.31 819.64,333.06 819.26,335.52"/>
    </edge>
    <edge id=":99589698_1" function="internal">