<?xml version="1.0" encoding="UTF-8"?>

<!-- generated on 2021-08-20 14:15:57 by Eclipse SUMO GUI Version v1_10_0+0106-205bfb5748
-->

<configuration xmlns:xsi="http://www.w3.org/2001/XMLSchema-instance" xsi:noNamespaceSchemaLocation="http://sumo.dlr.de/xsd/sumoConfiguration.xsd">

    <input>
        <net-file value="urban.net.xml"/>
        <route-files value="urban-200.rou.xml"/>
        <additional-files value="urban.add.xml"/>
    </input>

</configuration>
