<?xml version="1.0" encoding="UTF-8"?>
<routes xmlns:xsi="http://www.w3.org/2001/XMLSchema-instance" xsi:noNamespaceSchemaLocation="http://sumo.dlr.de/xsd/routes_file.xsd">
<vType id="typegen_1" carFollowModel="IDM" tau="0.364800" minGap="67.419998" accel="1.296900" decel="5.164800" delta="4.442900" />
<vType id="typegen_2" carFollowModel="IDM" tau="2.166000" minGap="60.653000" accel="1.587100" decel="5.236200" delta="3.980200" />
<vType id="typegen_3" carFollowModel="IDM" tau="2.143200" minGap="67.116997" accel="1.093700" decel="5.212400" delta="4.862200" />
<vType id="typegen_4" carFollowModel="IDM" tau="1.003200" minGap="61.865002" accel="0.992200" decel="4.855400" delta="4.066900" />
<vType id="typegen_5" carFollowModel="IDM" tau="1.596000" minGap="63.278999" accel="1.137300" decel="3.594000" delta="3.401800" />
<vType id="typegen_6" carFollowModel="IDM" tau="1.596000" minGap="66.612000" accel="1.500000" decel="6.093000" delta="4.732100" />
<vType id="typegen_7" carFollowModel="IDM" tau="2.120400" minGap="60.956001" accel="1.195300" decel="4.212800" delta="3.734400" />
<vType id="typegen_8" carFollowModel="IDM" tau="3.306000" minGap="64.693001" accel="1.296900" decel="5.260000" delta="4.732100" />
<vType id="typegen_9" carFollowModel="IDM" tau="2.644800" minGap="62.471001" accel="0.934100" decel="3.760600" delta="4.254900" />
<vType id="typegen_10" carFollowModel="IDM" tau="1.983600" minGap="64.188004" accel="1.398400" decel="5.521800" delta="4.182600" />
<vType id="typegen_11" carFollowModel="IDM" tau="2.120400" minGap="66.712997" accel="1.050200" decel="4.522200" delta="3.170400" />
<vType id="typegen_12" carFollowModel="IDM" tau="1.687200" minGap="67.622002" accel="1.688600" decel="5.355200" delta="3.560800" />
<vType id="typegen_13" carFollowModel="IDM" tau="1.573200" minGap="61.966000" accel="1.021200" decel="4.308000" delta="3.401800" />
<vType id="typegen_14" carFollowModel="IDM" tau="0.661200" minGap="67.925003" accel="1.514500" decel="5.831200" delta="3.821100" />
<vType id="typegen_15" carFollowModel="IDM" tau="2.416800" minGap="62.471001" accel="1.267900" decel="5.188600" delta="3.980200" />
<vType id="typegen_16" carFollowModel="IDM" tau="2.097600" minGap="64.086998" accel="0.905100" decel="4.784000" delta="3.907900" />
<vType id="typegen_17" carFollowModel="IDM" tau="2.941200" minGap="61.662998" accel="1.151800" decel="6.426200" delta="4.370600" />
<vType id="typegen_18" carFollowModel="IDM" tau="1.482000" minGap="63.986000" accel="1.369400" decel="4.712600" delta="4.139200" />
<vType id="typegen_19" carFollowModel="IDM" tau="2.348400" minGap="61.562000" accel="1.180800" decel="4.165200" delta="4.066900" />
<vType id="typegen_20" carFollowModel="IDM" tau="1.413600" minGap="65.097000" accel="1.006700" decel="4.546000" delta="4.153700" />
<vType id="typegen_21" carFollowModel="IDM" tau="2.006400" minGap="60.249001" accel="1.180800" decel="6.045400" delta="3.821100" />
<vType id="typegen_22" carFollowModel="IDM" tau="3.328800" minGap="62.571999" accel="1.021200" decel="4.260400" delta="3.792200" />
<vType id="typegen_23" carFollowModel="IDM" tau="2.052000" minGap="67.622002" accel="1.340400" decel="5.759800" delta="4.124800" />
<vType id="typegen_24" carFollowModel="IDM" tau="2.166000" minGap="66.107002" accel="1.238800" decel="4.903000" delta="4.153700" />
<vType id="typegen_25" carFollowModel="IDM" tau="1.892400" minGap="62.067001" accel="1.558100" decel="5.617000" delta="3.792200" />
<vType id="typegen_26" carFollowModel="IDM" tau="2.006400" minGap="62.369999" accel="1.238800" decel="4.736400" delta="3.748800" />
<vType id="typegen_27" carFollowModel="IDM" tau="2.416800" minGap="60.249001" accel="1.340400" decel="4.260400" delta="3.951300" />
<vType id="typegen_28" carFollowModel="IDM" tau="1.801200" minGap="60.249001" accel="0.702000" decel="5.474200" delta="3.662100" />
<vType id="typegen_29" carFollowModel="IDM" tau="2.120400" minGap="61.360001" accel="1.398400" decel="3.784400" delta="4.023600" />
<vType id="typegen_30" carFollowModel="IDM" tau="2.690400" minGap="61.360001" accel="1.703200" decel="4.760200" delta="4.356100" />
<vType id="typegen_31" carFollowModel="IDM" tau="2.257200" minGap="63.986000" accel="1.383900" decel="4.569800" delta="4.139200" />
<vType id="typegen_32" carFollowModel="IDM" tau="2.758800" minGap="59.743999" accel="1.050200" decel="5.664600" delta="3.705400" />
<vType id="typegen_33" carFollowModel="IDM" tau="2.416800" minGap="65.500999" accel="1.383900" decel="3.855800" delta="3.691000" />
<vType id="typegen_34" carFollowModel="IDM" tau="2.257200" minGap="66.712997" accel="1.151800" decel="4.665000" delta="3.980200" />
<vType id="typegen_35" carFollowModel="IDM" tau="0.866400" minGap="59.643002" accel="1.587100" decel="4.046200" delta="3.994600" />
<vType id="typegen_36" carFollowModel="IDM" tau="1.892400" minGap="66.511002" accel="1.093700" decel="6.045400" delta="3.980200" />
<vType id="typegen_37" carFollowModel="IDM" tau="2.576400" minGap="63.480999" accel="0.571400" decel="4.331800" delta="4.139200" />
<vType id="typegen_38" carFollowModel="IDM" tau="2.508000" minGap="66.208000" accel="1.137300" decel="5.498000" delta="3.474100" />
<vType id="typegen_39" carFollowModel="IDM" tau="1.846800" minGap="63.884998" accel="1.180800" decel="4.450800" delta="4.269400" />
<vType id="typegen_40" carFollowModel="IDM" tau="1.596000" minGap="62.875000" accel="1.311400" decel="4.522200" delta="4.515200" />
<vType id="typegen_41" carFollowModel="IDM" tau="1.938000" minGap="66.712997" accel="1.514500" decel="5.331400" delta="3.517500" />
<vType id="typegen_42" carFollowModel="IDM" tau="2.074800" minGap="65.804001" accel="0.963100" decel="4.522200" delta="3.416200" />
<vType id="typegen_43" carFollowModel="IDM" tau="2.234400" minGap="59.945999" accel="1.267900" decel="4.474600" delta="4.023600" />
<vType id="typegen_44" carFollowModel="IDM" tau="1.664400" minGap="62.067001" accel="0.803500" decel="4.569800" delta="3.980200" />
<vType id="typegen_45" carFollowModel="IDM" tau="1.048800" minGap="60.855000" accel="1.587100" decel="5.950200" delta="4.226000" />
<vType id="typegen_46" carFollowModel="IDM" tau="2.074800" minGap="62.167999" accel="1.311400" decel="3.879600" delta="4.630900" />
<vType id="typegen_47" carFollowModel="IDM" tau="2.006400" minGap="64.289001" accel="1.645100" decel="3.974800" delta="4.283800" />
<vType id="typegen_48" carFollowModel="IDM" tau="2.371200" minGap="59.036999" accel="1.122800" decel="5.593200" delta="3.777700" />
<vType id="typegen_49" carFollowModel="IDM" tau="2.211600" minGap="62.773998" accel="1.442000" decel="6.045400" delta="4.283800" />
<vType id="typegen_50" carFollowModel="IDM" tau="2.234400" minGap="71.056000" accel="1.064700" decel="5.783600" delta="3.691000" />
<vType id="typegen_51" carFollowModel="IDM" tau="2.234400" minGap="61.662998" accel="1.166300" decel="3.427400" delta="3.430700" />
<vType id="typegen_52" carFollowModel="IDM" tau="1.641600" minGap="65.601997" accel="1.195300" decel="5.688400" delta="4.327200" />
<vType id="typegen_53" carFollowModel="IDM" tau="3.192000" minGap="57.421001" accel="1.137300" decel="4.189000" delta="3.734400" />
<vType id="typegen_54" carFollowModel="IDM" tau="1.504800" minGap="58.532001" accel="1.485500" decel="3.284600" delta="4.081400" />
<vType id="typegen_55" carFollowModel="IDM" tau="1.824000" minGap="67.419998" accel="1.413000" decel="4.784000" delta="4.038000" />
<vType id="typegen_56" carFollowModel="IDM" tau="1.140000" minGap="61.662998" accel="1.035700" decel="4.046200" delta="4.182600" />
<vType id="typegen_57" carFollowModel="IDM" tau="2.485200" minGap="63.380001" accel="1.108200" decel="6.140600" delta="4.052500" />
<vType id="typegen_58" carFollowModel="IDM" tau="2.257200" minGap="64.086998" accel="0.818000" decel="4.760200" delta="3.401800" />
<vType id="typegen_59" carFollowModel="IDM" tau="2.371200" minGap="60.653000" accel="1.485500" decel="4.688800" delta="4.659800" />
<vType id="typegen_60" carFollowModel="IDM" tau="1.231200" minGap="62.773998" accel="1.006700" decel="5.022000" delta="4.211500" />
<vType id="typegen_61" carFollowModel="IDM" tau="3.716400" minGap="60.551998" accel="1.021200" decel="5.640800" delta="3.676500" />
<vType id="typegen_62" carFollowModel="IDM" tau="1.071600" minGap="62.167999" accel="1.311400" decel="5.331400" delta="4.515200" />
<vType id="typegen_63" carFollowModel="IDM" tau="0.729600" minGap="67.116997" accel="0.977700" decel="4.688800" delta="4.124800" />
<vType id="typegen_64" carFollowModel="IDM" tau="1.596000" minGap="65.400002" accel="1.267900" decel="5.188600" delta="3.806700" />
<vType id="typegen_65" carFollowModel="IDM" tau="1.641600" minGap="66.612000" accel="1.775700" decel="4.546000" delta="3.343900" />
<vType id="typegen_66" carFollowModel="IDM" tau="1.755600" minGap="62.067001" accel="0.774500" decel="5.521800" delta="4.110300" />
<vType id="typegen_67" carFollowModel="IDM" tau="1.960800" minGap="65.400002" accel="1.035700" decel="5.022000" delta="4.298300" />
<vType id="typegen_68" carFollowModel="IDM" tau="1.436400" minGap="60.551998" accel="0.832600" decel="5.022000" delta="3.777700" />
<vType id="typegen_69" carFollowModel="IDM" tau="1.938000" minGap="62.976002" accel="0.919600" decel="3.427400" delta="3.589800" />
<vType id="typegen_70" carFollowModel="IDM" tau="1.185600" minGap="61.056999" accel="0.876100" decel="4.784000" delta="4.254900" />
<vType id="typegen_71" carFollowModel="IDM" tau="2.576400" minGap="69.945000" accel="1.122800" decel="5.450400" delta="3.488500" />
<vType id="typegen_72" carFollowModel="IDM" tau="1.915200" minGap="62.067001" accel="0.716500" decel="5.283800" delta="3.763300" />
<vType id="typegen_73" carFollowModel="IDM" tau="2.120400" minGap="59.036999" accel="0.905100" decel="3.832000" delta="3.748800" />
<vType id="typegen_74" carFollowModel="IDM" tau="1.436400" minGap="65.400002" accel="1.296900" decel="5.307600" delta="3.127000" />
<vType id="typegen_75" carFollowModel="IDM" tau="2.234400" minGap="69.338997" accel="1.195300" decel="3.927200" delta="3.879000" />
<vType id="typegen_76" carFollowModel="IDM" tau="2.576400" minGap="63.077000" accel="1.427500" decel="4.379400" delta="3.951300" />
<vType id="typegen_77" carFollowModel="IDM" tau="2.667600" minGap="71.459999" accel="1.413000" decel="5.331400" delta="3.358400" />
<vType id="typegen_78" carFollowModel="IDM" tau="1.824000" minGap="65.804001" accel="1.166300" decel="5.855000" delta="4.095900" />
<vType id="typegen_79" carFollowModel="IDM" tau="2.804400" minGap="64.894997" accel="1.166300" decel="3.617800" delta="3.719900" />
<vType id="typegen_80" carFollowModel="IDM" tau="2.530800" minGap="66.612000" accel="1.442000" decel="5.355200" delta="4.298300" />
<vType id="typegen_81" carFollowModel="IDM" tau="2.485200" minGap="61.360001" accel="0.977700" decel="4.498400" delta="4.211500" />
<vType id="typegen_82" carFollowModel="IDM" tau="1.892400" minGap="61.966000" accel="1.471000" decel="5.807400" delta="4.240500" />
<vType id="typegen_83" carFollowModel="IDM" tau="2.006400" minGap="62.673000" accel="0.803500" decel="4.474600" delta="3.691000" />
<vType id="typegen_84" carFollowModel="IDM" tau="1.482000" minGap="60.047001" accel="2.094900" decel="4.569800" delta="3.965700" />
<vType id="typegen_85" carFollowModel="IDM" tau="1.254000" minGap="66.612000" accel="1.383900" decel="5.379000" delta="3.835600" />
<vType id="typegen_86" carFollowModel="IDM" tau="1.732800" minGap="67.419998" accel="0.658400" decel="5.307600" delta="3.647600" />
<vType id="typegen_87" carFollowModel="IDM" tau="1.732800" minGap="66.915001" accel="1.558100" decel="5.545600" delta="3.792200" />
<vType id="typegen_88" carFollowModel="IDM" tau="1.254000" minGap="62.875000" accel="1.558100" decel="3.665400" delta="3.575300" />
<vType id="typegen_89" carFollowModel="IDM" tau="2.986800" minGap="64.793999" accel="1.514500" decel="4.831600" delta="4.211500" />
<vType id="typegen_90" carFollowModel="IDM" tau="1.618800" minGap="57.320000" accel="1.122800" decel="4.498400" delta="3.705400" />
<vType id="typegen_91" carFollowModel="IDM" tau="2.530800" minGap="61.258999" accel="1.311400" decel="4.260400" delta="3.821100" />
<vType id="typegen_92" carFollowModel="IDM" tau="2.234400" minGap="66.511002" accel="1.035700" decel="4.831600" delta="3.821100" />
<vType id="typegen_93" carFollowModel="IDM" tau="1.869600" minGap="64.490997" accel="0.890600" decel="5.569400" delta="3.633100" />
<vType id="typegen_94" carFollowModel="IDM" tau="1.755600" minGap="61.764000" accel="1.427500" decel="4.070000" delta="3.734400" />
<vType id="typegen_95" carFollowModel="IDM" tau="2.713200" minGap="63.582001" accel="1.021200" decel="3.736800" delta="4.544100" />
<vType id="typegen_96" carFollowModel="IDM" tau="0.820800" minGap="61.258999" accel="1.064700" decel="5.283800" delta="4.038000" />
<vType id="typegen_97" carFollowModel="IDM" tau="2.485200" minGap="66.308998" accel="1.645100" decel="4.641200" delta="4.544100" />
<vType id="typegen_98" carFollowModel="IDM" tau="1.960800" minGap="61.662998" accel="1.253300" decel="4.998200" delta="3.734400" />
<vType id="typegen_99" carFollowModel="IDM" tau="2.120400" minGap="67.419998" accel="1.325900" decel="4.879200" delta="3.286100" />
<vType id="typegen_100" carFollowModel="IDM" tau="1.983600" minGap="62.369999" accel="1.093700" decel="3.641600" delta="3.806700" />
<route edges="215486792#1 -gneE1 gneE0 47026378 -215671214 215671204 53848099 75459746 -196818520 -43990411#1 53848099 -104081868 156772091#1 gneE2 -215344910#0 -75459746 -104081868 156772091#1 gneE2 -215344910#0 -75459746 -104081868 156772091#1 gneE2 -215344910#0 -196818520 -43990411#1 -43990411#0 156772091#0 104081868 -53848099 -215671204 215671214 73541769#1 43990411#0 -215671204 -80659133 gneE0 47026378 -215671214 -80659133 gneE0 47026378 -215671214 215671204 43990411#1 215486792#1 -gneE1" color="yellow" id="route_0"/>
<route edges="-215486792#1 196818520 -75459746 -53848099 -215671204 -80659133 gneE1 -215486792#1 196818520 -75459746 -53848099 -215671204 215671214 -47026378 51064594 80659133 215671214 -47026378 51064594 80659133 215671204 -43990411#0 -73541769#1 -215671214 215671204 53848099 -104081868 -156772091#0 43990411#0 43990411#1 196818520 215344910#0 -gneE2 -156772091#1 104081868 75459746 215344910#0 -gneE2 -156772091#1 104081868 75459746 215344910#0 -gneE2 -156772091#1 104081868 -53848099 43990411#1 196818520" color="yellow" id="route_1"/>
<route edges="-80659133 gneE1 -215486792#1 196818520 -75459746 -53848099 -215671204" color="yellow" id="route_2"/>
<route edges="43990411#1 196818520 215344910#0 -gneE2 -156772091#1 -156772091#0 43990411#0" color="yellow" id="route_3"/>
<route edges="-43990411#1 -43990411#0 156772091#0 156772091#1 gneE2 -215344910#0 -196818520" color="yellow" id="route_4"/>
<vehicle id="genveh_1" type="typegen_1" route="route_0" departSpeed="28.049999" depart="0" departPos="random" departLane="random" color="1,0,0"/>
<vehicle id="genveh_2" type="typegen_2" route="route_0" departSpeed="30.900000" depart="0" departPos="random" departLane="random" color="1,0,0"/>
<vehicle id="genveh_3" type="typegen_3" route="route_0" departSpeed="30.049999" depart="0" departPos="random" departLane="random" color="1,0,0"/>
<vehicle id="genveh_4" type="typegen_4" route="route_0" departSpeed="30.799999" depart="0" departPos="random" departLane="random" color="1,0,0"/>
<vehicle id="genveh_5" type="typegen_5" route="route_0" departSpeed="29.600000" depart="0" departPos="random" departLane="random" color="1,0,0"/>
<vehicle id="genveh_6" type="typegen_6" route="route_0" departSpeed="27.450001" depart="0" departPos="random" departLane="random" color="1,0,0"/>
<vehicle id="genveh_7" type="typegen_7" route="route_0" departSpeed="31.450001" depart="0" departPos="random" departLane="random" color="1,0,0"/>
<vehicle id="genveh_8" type="typegen_8" route="route_0" departSpeed="27.799999" depart="0" departPos="random" departLane="random" color="1,0,0"/>
<vehicle id="genveh_9" type="typegen_9" route="route_0" departSpeed="30.150000" depart="0" departPos="random" departLane="random" color="1,0,0"/>
<vehicle id="genveh_10" type="typegen_10" route="route_0" departSpeed="29.799999" depart="0" departPos="random" departLane="random" color="1,0,0"/>
<vehicle id="genveh_11" type="typegen_11" route="route_0" departSpeed="28.000000" depart="0" departPos="random" departLane="random" color="1,0,0"/>
<vehicle id="genveh_12" type="typegen_12" route="route_0" departSpeed="28.200001" depart="0" departPos="random" departLane="random" color="1,0,0"/>
<vehicle id="genveh_13" type="typegen_13" route="route_0" departSpeed="33.849998" depart="0" departPos="random" departLane="random" color="1,0,0"/>
<vehicle id="genveh_14" type="typegen_14" route="route_0" departSpeed="29.549999" depart="0" departPos="random" departLane="random" color="1,0,0"/>
<vehicle id="genveh_15" type="typegen_15" route="route_0" departSpeed="27.350000" depart="0" departPos="random" departLane="random" color="1,0,0"/>
<vehicle id="genveh_16" type="typegen_16" route="route_0" departSpeed="28.299999" depart="0" departPos="random" departLane="random" color="1,0,0"/>
<vehicle id="genveh_17" type="typegen_17" route="route_0" departSpeed="29.549999" depart="0" departPos="random" departLane="random" color="1,0,0"/>
<vehicle id="genveh_18" type="typegen_18" route="route_0" departSpeed="27.850000" depart="0" departPos="random" departLane="random" color="1,0,0"/>
<vehicle id="genveh_19" type="typegen_19" route="route_0" departSpeed="31.150000" depart="0" departPos="random" departLane="random" color="1,0,0"/>
<vehicle id="genveh_20" type="typegen_20" route="route_0" departSpeed="29.150000" depart="0" departPos="random" departLane="random" color="1,0,0"/>
<vehicle id="genveh_21" type="typegen_21" route="route_1" departSpeed="27.900000" depart="0" departPos="random" departLane="random" color="1,0,0"/>
<vehicle id="genveh_22" type="typegen_22" route="route_1" departSpeed="30.650000" depart="0" departPos="random" departLane="random" color="1,0,0"/>
<vehicle id="genveh_23" type="typegen_23" route="route_1" departSpeed="31.400000" depart="0" departPos="random" departLane="random" color="1,0,0"/>
<vehicle id="genveh_24" type="typegen_24" route="route_1" departSpeed="30.549999" depart="0" departPos="random" departLane="random" color="1,0,0"/>
<vehicle id="genveh_25" type="typegen_25" route="route_1" departSpeed="30.950001" depart="0" departPos="random" departLane="random" color="1,0,0"/>
<vehicle id="genveh_26" type="typegen_26" route="route_1" departSpeed="28.850000" depart="0" departPos="random" departLane="random" color="1,0,0"/>
<vehicle id="genveh_27" type="typegen_27" route="route_1" departSpeed="28.150000" depart="0" departPos="random" departLane="random" color="1,0,0"/>
<vehicle id="genveh_28" type="typegen_28" route="route_1" departSpeed="28.000000" depart="0" departPos="random" departLane="random" color="1,0,0"/>
<vehicle id="genveh_29" type="typegen_29" route="route_1" departSpeed="30.000000" depart="0" departPos="random" departLane="random" color="1,0,0"/>
<vehicle id="genveh_30" type="typegen_30" route="route_1" departSpeed="30.150000" depart="0" departPos="random" departLane="random" color="1,0,0"/>
<vehicle id="genveh_31" type="typegen_31" route="route_1" departSpeed="28.600000" depart="0" departPos="random" departLane="random" color="1,0,0"/>
<vehicle id="genveh_32" type="typegen_32" route="route_1" departSpeed="28.750000" depart="0" departPos="random" departLane="random" color="1,0,0"/>
<vehicle id="genveh_33" type="typegen_33" route="route_1" departSpeed="32.099998" depart="0" departPos="random" departLane="random" color="1,0,0"/>
<vehicle id="genveh_34" type="typegen_34" route="route_1" departSpeed="28.600000" depart="0" departPos="random" departLane="random" color="1,0,0"/>
<vehicle id="genveh_35" type="typegen_35" route="route_1" departSpeed="30.150000" depart="0" departPos="random" departLane="random" color="1,0,0"/>
<vehicle id="genveh_36" type="typegen_36" route="route_1" departSpeed="29.600000" depart="0" departPos="random" departLane="random" color="1,0,0"/>
<vehicle id="genveh_37" type="typegen_37" route="route_1" departSpeed="28.000000" depart="0" departPos="random" departLane="random" color="1,0,0"/>
<vehicle id="genveh_38" type="typegen_38" route="route_1" departSpeed="29.549999" depart="0" departPos="random" departLane="random" color="1,0,0"/>
<vehicle id="genveh_39" type="typegen_39" route="route_1" departSpeed="33.799999" depart="0" departPos="random" departLane="random" color="1,0,0"/>
<vehicle id="genveh_40" type="typegen_40" route="route_1" departSpeed="28.799999" depart="0" departPos="random" departLane="random" color="1,0,0"/>
<vehicle id="genveh_41" type="typegen_41" route="route_2" departSpeed="29.350000" depart="0" departPos="random" departLane="random" color="1,0,0"/>
<vehicle id="genveh_42" type="typegen_42" route="route_2" departSpeed="28.650000" depart="0" departPos="random" departLane="random" color="1,0,0"/>
<vehicle id="genveh_43" type="typegen_43" route="route_2" departSpeed="28.850000" depart="0" departPos="random" departLane="random" color="1,0,0"/>
<vehicle id="genveh_44" type="typegen_44" route="route_2" departSpeed="30.500000" depart="0" departPos="random" departLane="random" color="1,0,0"/>
<vehicle id="genveh_45" type="typegen_45" route="route_2" departSpeed="32.250000" depart="0" departPos="random" departLane="random" color="1,0,0"/>
<vehicle id="genveh_46" type="typegen_46" route="route_2" departSpeed="30.150000" depart="0" departPos="random" departLane="random" color="1,0,0"/>
<vehicle id="genveh_47" type="typegen_47" route="route_2" departSpeed="28.000000" depart="0" departPos="random" departLane="random" color="1,0,0"/>
<vehicle id="genveh_48" type="typegen_48" route="route_2" departSpeed="31.200001" depart="0" departPos="random" departLane="random" color="1,0,0"/>
<vehicle id="genveh_49" type="typegen_49" route="route_2" departSpeed="28.799999" depart="0" departPos="random" departLane="random" color="1,0,0"/>
<vehicle id="genveh_50" type="typegen_50" route="route_2" departSpeed="28.650000" depart="0" departPos="random" departLane="random" color="1,0,0"/>
<vehicle id="genveh_51" type="typegen_51" route="route_2" departSpeed="30.000000" depart="0" departPos="random" departLane="random" color="1,0,0"/>
<vehicle id="genveh_52" type="typegen_52" route="route_2" departSpeed="32.099998" depart="0" departPos="random" departLane="random" color="1,0,0"/>
<vehicle id="genveh_53" type="typegen_53" route="route_2" departSpeed="31.250000" depart="0" departPos="random" departLane="random" color="1,0,0"/>
<vehicle id="genveh_54" type="typegen_54" route="route_2" departSpeed="29.350000" depart="0" departPos="random" departLane="random" color="1,0,0"/>
<vehicle id="genveh_55" type="typegen_55" route="route_2" departSpeed="27.650000" depart="0" departPos="random" departLane="random" color="1,0,0"/>
<vehicle id="genveh_56" type="typegen_56" route="route_2" departSpeed="28.900000" depart="0" departPos="random" departLane="random" color="1,0,0"/>
<vehicle id="genveh_57" type="typegen_57" route="route_2" departSpeed="28.200001" depart="0" departPos="random" departLane="random" color="1,0,0"/>
<vehicle id="genveh_58" type="typegen_58" route="route_2" departSpeed="32.049999" depart="0" departPos="random" departLane="random" color="1,0,0"/>
<vehicle id="genveh_59" type="typegen_59" route="route_2" departSpeed="31.049999" depart="0" departPos="random" departLane="random" color="1,0,0"/>
<vehicle id="genveh_60" type="typegen_60" route="route_2" departSpeed="28.950001" depart="0" departPos="random" departLane="random" color="1,0,0"/>
<vehicle id="genveh_61" type="typegen_61" route="route_3" departSpeed="32.049999" depart="0" departPos="random" departLane="random" color="1,0,0"/>
<vehicle id="genveh_62" type="typegen_62" route="route_3" departSpeed="28.950001" depart="0" departPos="random" departLane="random" color="1,0,0"/>
<vehicle id="genveh_63" type="typegen_63" route="route_3" departSpeed="29.150000" depart="0" departPos="random" departLane="random" color="1,0,0"/>
<vehicle id="genveh_64" type="typegen_64" route="route_3" departSpeed="32.150002" depart="0" departPos="random" departLane="random" color="1,0,0"/>
<vehicle id="genveh_65" type="typegen_65" route="route_3" departSpeed="28.799999" depart="0" departPos="random" departLane="random" color="1,0,0"/>
<vehicle id="genveh_66" type="typegen_66" route="route_3" departSpeed="28.850000" depart="0" departPos="random" departLane="random" color="1,0,0"/>
<vehicle id="genveh_67" type="typegen_67" route="route_3" departSpeed="33.349998" depart="0" departPos="random" departLane="random" color="1,0,0"/>
<vehicle id="genveh_68" type="typegen_68" route="route_3" departSpeed="27.200001" depart="0" departPos="random" departLane="random" color="1,0,0"/>
<vehicle id="genveh_69" type="typegen_69" route="route_3" departSpeed="28.750000" depart="0" departPos="random" departLane="random" color="1,0,0"/>
<vehicle id="genveh_70" type="typegen_70" route="route_3" departSpeed="31.150000" depart="0" departPos="random" departLane="random" color="1,0,0"/>
<vehicle id="genveh_71" type="typegen_71" route="route_3" departSpeed="28.200001" depart="0" departPos="random" departLane="random" color="1,0,0"/>
<vehicle id="genveh_72" type="typegen_72" route="route_3" departSpeed="29.200001" depart="0" departPos="random" departLane="random" color="1,0,0"/>
<vehicle id="genveh_73" type="typegen_73" route="route_3" departSpeed="29.350000" depart="0" departPos="random" departLane="random" color="1,0,0"/>
<vehicle id="genveh_74" type="typegen_74" route="route_3" departSpeed="29.250000" depart="0" departPos="random" departLane="random" color="1,0,0"/>
<vehicle id="genveh_75" type="typegen_75" route="route_3" departSpeed="29.299999" depart="0" departPos="random" departLane="random" color="1,0,0"/>
<vehicle id="genveh_76" type="typegen_76" route="route_3" departSpeed="29.400000" depart="0" departPos="random" departLane="random" color="1,0,0"/>
<vehicle id="genveh_77" type="typegen_77" route="route_3" departSpeed="30.200001" depart="0" departPos="random" departLane="random" color="1,0,0"/>
<vehicle id="genveh_78" type="typegen_78" route="route_3" departSpeed="31.350000" depart="0" departPos="random" departLane="random" color="1,0,0"/>
<vehicle id="genveh_79" type="typegen_79" route="route_3" departSpeed="28.600000" depart="0" departPos="random" departLane="random" color="1,0,0"/>
<vehicle id="genveh_80" type="typegen_80" route="route_3" departSpeed="34.049999" depart="0" departPos="random" departLane="random" color="1,0,0"/>
<vehicle id="genveh_81" type="typegen_81" route="route_4" departSpeed="28.450001" depart="0" departPos="random" departLane="random" color="1,0,0"/>
<vehicle id="genveh_82" type="typegen_82" route="route_4" departSpeed="30.350000" depart="0" departPos="random" departLane="random" color="1,0,0"/>
<vehicle id="genveh_83" type="typegen_83" route="route_4" departSpeed="29.049999" depart="0" departPos="random" departLane="random" color="1,0,0"/>
<vehicle id="genveh_84" type="typegen_84" route="route_4" departSpeed="33.650002" depart="0" departPos="random" departLane="random" color="1,0,0"/>
<vehicle id="genveh_85" type="typegen_85" route="route_4" departSpeed="30.200001" depart="0" departPos="random" departLane="random" color="1,0,0"/>
<vehicle id="genveh_86" type="typegen_86" route="route_4" departSpeed="30.350000" depart="0" departPos="random" departLane="random" color="1,0,0"/>
<vehicle id="genveh_87" type="typegen_87" route="route_4" departSpeed="28.150000" depart="0" departPos="random" departLane="random" color="1,0,0"/>
<vehicle id="genveh_88" type="typegen_88" route="route_4" departSpeed="29.299999" depart="0" departPos="random" departLane="random" color="1,0,0"/>
<vehicle id="genveh_89" type="typegen_89" route="route_4" departSpeed="28.700001" depart="0" departPos="random" departLane="random" color="1,0,0"/>
<vehicle id="genveh_90" type="typegen_90" route="route_4" departSpeed="28.799999" depart="0" departPos="random" departLane="random" color="1,0,0"/>
<vehicle id="genveh_91" type="typegen_91" route="route_4" departSpeed="28.700001" depart="0" departPos="random" departLane="random" color="1,0,0"/>
<vehicle id="genveh_92" type="typegen_92" route="route_4" departSpeed="28.650000" depart="0" departPos="random" departLane="random" color="1,0,0"/>
<vehicle id="genveh_93" type="typegen_93" route="route_4" departSpeed="27.850000" depart="0" departPos="random" departLane="random" color="1,0,0"/>
<vehicle id="genveh_94" type="typegen_94" route="route_4" departSpeed="28.250000" depart="0" departPos="random" departLane="random" color="1,0,0"/>
<vehicle id="genveh_95" type="typegen_95" route="route_4" departSpeed="27.100000" depart="0" departPos="random" departLane="random" color="1,0,0"/>
<vehicle id="genveh_96" type="typegen_96" route="route_4" departSpeed="28.799999" depart="0" departPos="random" departLane="random" color="1,0,0"/>
<vehicle id="genveh_97" type="typegen_97" route="route_4" departSpeed="29.450001" depart="0" departPos="random" departLane="random" color="1,0,0"/>
<vehicle id="genveh_98" type="typegen_98" route="route_4" departSpeed="28.799999" depart="0" departPos="random" departLane="random" color="1,0,0"/>
<vehicle id="genveh_99" type="typegen_99" route="route_4" departSpeed="28.549999" depart="0" departPos="random" departLane="random" color="1,0,0"/>
<vehicle id="genveh_100" type="typegen_100" route="route_4" departSpeed="28.500000" depart="0" departPos="random" departLane="random" color="1,0,0"/>
</routes>
