<?xml version="1.0" encoding="UTF-8"?>
<!-- generated on 2021-09-01 14:33:41.940723 by $Id$ v1_10_0+0106-205bfb5748
  options: -p 20 -n /Users/pei/Documents/urban_scenario/orlando/urban.net.xml -o /Users/pei/Documents/urban_scenario/orlando/urban.trips.xml
-->
<routes xmlns:xsi="http://www.w3.org/2001/XMLSchema-instance" xsi:noNamespaceSchemaLocation="http://sumo.dlr.de/xsd/routes_file.xsd">
    <trip id="0" depart="0.00" from="156772091#0" to="-104081868"/>
    <trip id="1" depart="20.00" from="-215486793" to="-215671204"/>
    <trip id="2" depart="40.00" from="215359980" to="215344910#1"/>
    <trip id="3" depart="60.00" from="47026378" to="-157848753"/>
    <trip id="4" depart="80.00" from="-44076815" to="-104081868"/>
    <trip id="5" depart="100.00" from="-215344910#1" to="11188947"/>
    <trip id="6" depart="120.00" from="-104081868" to="-215486792#1"/>
    <trip id="7" depart="140.00" from="156772091#0" to="127588520"/>
    <trip id="8" depart="160.00" from="-215344910#1" to="156772091#1"/>
    <trip id="9" depart="180.00" from="215671214" to="-104081861#0"/>
    <trip id="10" depart="200.00" from="215671214" to="215344910#1"/>
    <trip id="11" depart="220.00" from="-215671214" to="-215359980"/>
    <trip id="12" depart="240.00" from="75459746" to="-53848099"/>
    <trip id="13" depart="260.00" from="-156772091#0" to="-157848753"/>
    <trip id="14" depart="280.00" from="43990411#0" to="157848752"/>
    <trip id="15" depart="300.00" from="215671214" to="215486792#1"/>
    <trip id="16" depart="320.00" from="-80659133" to="73541769#1"/>
    <trip id="17" depart="340.00" from="-43990411#1" to="156772091#0"/>
    <trip id="18" depart="360.00" from="43990411#0" to="157848752"/>
    <trip id="19" depart="380.00" from="43990411#1" to="156772091#1"/>
    <trip id="20" depart="400.00" from="215344910#0" to="-104081868"/>
    <trip id="21" depart="420.00" from="-215359980" to="-43990411#1"/>
    <trip id="22" depart="440.00" from="-156772091#0" to="-215671214"/>
    <trip id="23" depart="460.00" from="-156772091#1" to="-43990411#1"/>
    <trip id="24" depart="480.00" from="156772091#0" to="-73541769#1"/>
    <trip id="25" depart="500.00" from="-43990411#0" to="-215671204"/>
    <trip id="26" depart="520.00" from="-215486792#1" to="53848099"/>
    <trip id="27" depart="540.00" from="156772091#0" to="157848752"/>
    <trip id="28" depart="560.00" from="-196818520" to="215486792#1"/>
    <trip id="29" depart="580.00" from="-196818520" to="-75459746"/>
    <trip id="30" depart="600.00" from="80659133" to="196818520"/>
    <trip id="31" depart="620.00" from="104081861#0" to="215344910#1"/>
    <trip id="32" depart="640.00" from="43990411#0" to="215671204"/>
    <trip id="33" depart="660.00" from="-215359980" to="-104081868"/>
    <trip id="34" depart="680.00" from="-215671204" to="-43990411#0"/>
    <trip id="35" depart="700.00" from="-215344910#1" to="53848099"/>
    <trip id="36" depart="720.00" from="47026378" to="-47026378"/>
    <trip id="37" depart="740.00" from="157848753" to="-75459746"/>
    <trip id="38" depart="760.00" from="53848099" to="104081868"/>
    <trip id="39" depart="780.00" from="-215486792#1" to="-215671214"/>
    <trip id="40" depart="800.00" from="104081861#0" to="-43990411#0"/>
    <trip id="41" depart="820.00" from="104081868" to="44076815"/>
    <trip id="42" depart="840.00" from="-43990411#1" to="-215671204"/>
    <trip id="43" depart="860.00" from="80659133" to="11188947"/>
    <trip id="44" depart="880.00" from="-156772091#0" to="-104081868"/>
    <trip id="45" depart="900.00" from="-156772091#1" to="196818520"/>
    <trip id="46" depart="920.00" from="215671204" to="-80659133"/>
    <trip id="47" depart="940.00" from="-127588520" to="-75459746"/>
    <trip id="48" depart="960.00" from="80659133" to="127588520"/>
    <trip id="49" depart="980.00" from="75459746" to="43990411#1"/>
    <trip id="50" depart="1000.00" from="-104081862#1" to="215359980"/>
    <trip id="51" depart="1020.00" from="196818520" to="127588520"/>
    <trip id="52" depart="1040.00" from="-215486792#1" to="196818520"/>
    <trip id="53" depart="1060.00" from="-156772091#1" to="104081862#1"/>
    <trip id="54" depart="1080.00" from="-53848099" to="73541769#1"/>
    <trip id="55" depart="1100.00" from="47026378" to="-43990411#0"/>
    <trip id="56" depart="1120.00" from="-75459746" to="-215486792#1"/>
    <trip id="57" depart="1140.00" from="53848099" to="43990411#1"/>
    <trip id="58" depart="1160.00" from="-215486793" to="196818520"/>
    <trip id="59" depart="1180.00" from="11177800" to="-215359980"/>
    <trip id="60" depart="1200.00" from="215486792#1" to="11188947"/>
    <trip id="61" depart="1220.00" from="215671204" to="127588520"/>
    <trip id="62" depart="1240.00" from="-104081862#1" to="-47026378"/>
    <trip id="63" depart="1260.00" from="-104081862#1" to="53848099"/>
    <trip id="64" depart="1280.00" from="47026378" to="43990411#0"/>
    <trip id="65" depart="1300.00" from="-215671204" to="-156772091#0"/>
    <trip id="66" depart="1320.00" from="47026378" to="53848099"/>
    <trip id="67" depart="1340.00" from="-156772091#0" to="11177800"/>
    <trip id="68" depart="1360.00" from="-127588520" to="215486793"/>
    <trip id="69" depart="1380.00" from="215486792#1" to="11188947"/>
    <trip id="70" depart="1400.00" from="-73541769#1" to="127588520"/>
    <trip id="71" depart="1420.00" from="-215486792#1" to="43990411#1"/>
    <trip id="72" depart="1440.00" from="-44076815" to="-215671204"/>
    <trip id="73" depart="1460.00" from="-80659133" to="215486792#1"/>
    <trip id="74" depart="1480.00" from="-215344910#1" to="-47026378"/>
    <trip id="75" depart="1500.00" from="80659133" to="196818520"/>
    <trip id="76" depart="1520.00" from="-47026378" to="11188947"/>
    <trip id="77" depart="1540.00" from="-156772091#1" to="-215671204"/>
    <trip id="78" depart="1560.00" from="-215671214" to="156772091#1"/>
    <trip id="79" depart="1580.00" from="-215359980" to="-215671204"/>
    <trip id="80" depart="1600.00" from="-127588520" to="196818520"/>
    <trip id="81" depart="1620.00" from="-215359980" to="51064594"/>
    <trip id="82" depart="1640.00" from="43990411#1" to="-156772091#0"/>
    <trip id="83" depart="1660.00" from="-215359980" to="215344910#0"/>
    <trip id="84" depart="1680.00" from="-215344910#1" to="-215344910#0"/>
    <trip id="85" depart="1700.00" from="73541769#1" to="156772091#0"/>
    <trip id="86" depart="1720.00" from="-53848099" to="215671204"/>
    <trip id="87" depart="1740.00" from="215671214" to="-215486792#1"/>
    <trip id="88" depart="1760.00" from="-156772091#0" to="104081862#1"/>
    <trip id="89" depart="1780.00" from="-44076815" to="104081868"/>
    <trip id="90" depart="1800.00" from="215359980" to="215344910#0"/>
    <trip id="91" depart="1820.00" from="80659133" to="-157848753"/>
    <trip id="92" depart="1840.00" from="-44076815" to="-53848099"/>
    <trip id="93" depart="1860.00" from="43990411#1" to="-215671214"/>
    <trip id="94" depart="1880.00" from="-215344910#0" to="104081862#1"/>
    <trip id="95" depart="1900.00" from="-44076815" to="-43990411#1"/>
    <trip id="96" depart="1920.00" from="-215359980" to="51064594"/>
    <trip id="97" depart="1940.00" from="-47026378" to="43990411#1"/>
    <trip id="98" depart="1960.00" from="104081861#0" to="-156772091#0"/>
    <trip id="99" depart="1980.00" from="80659133" to="43990411#0"/>
    <trip id="100" depart="2000.00" from="75459746" to="53848099"/>
    <trip id="101" depart="2020.00" from="43990411#0" to="-215359980"/>
    <trip id="102" depart="2040.00" from="-73541769#1" to="-215671204"/>
    <trip id="103" depart="2060.00" from="-44076815" to="-156772091#0"/>
    <trip id="104" depart="2080.00" from="-43990411#1" to="75459746"/>
    <trip id="105" depart="2100.00" from="-215486792#1" to="215671204"/>
    <trip id="106" depart="2120.00" from="-53848099" to="-80659133"/>
    <trip id="107" depart="2140.00" from="75459746" to="75459746"/>
    <trip id="108" depart="2160.00" from="104081861#0" to="215359980"/>
    <trip id="109" depart="2180.00" from="-196818520" to="-43990411#1"/>
    <trip id="110" depart="2200.00" from="75459746" to="156772091#1"/>
    <trip id="111" depart="2220.00" from="-80659133" to="215486792#1"/>
    <trip id="112" depart="2240.00" from="-127588520" to="156772091#1"/>
    <trip id="113" depart="2260.00" from="-75459746" to="43990411#1"/>
    <trip id="114" depart="2280.00" from="-196818520" to="73541769#1"/>
    <trip id="115" depart="2300.00" from="-156772091#0" to="-215486792#1"/>
    <trip id="116" depart="2320.00" from="104081868" to="215344910#1"/>
    <trip id="117" depart="2340.00" from="-215359980" to="-196818520"/>
    <trip id="118" depart="2360.00" from="47026378" to="-215671214"/>
    <trip id="119" depart="2380.00" from="104081868" to="157848752"/>
    <trip id="120" depart="2400.00" from="-44076815" to="156772091#1"/>
    <trip id="121" depart="2420.00" from="-75459746" to="53848099"/>
    <trip id="122" depart="2440.00" from="-215344910#1" to="215359980"/>
    <trip id="123" depart="2460.00" from="-215359980" to="-75459746"/>
    <trip id="124" depart="2480.00" from="157848753" to="-43990411#1"/>
    <trip id="125" depart="2500.00" from="-215671204" to="215486793"/>
    <trip id="126" depart="2520.00" from="-127588520" to="104081868"/>
    <trip id="127" depart="2540.00" from="80659133" to="75459746"/>
    <trip id="128" depart="2560.00" from="-127588520" to="-215671204"/>
    <trip id="129" depart="2580.00" from="-215486792#1" to="53848099"/>
    <trip id="130" depart="2600.00" from="47026378" to="44076815"/>
    <trip id="131" depart="2620.00" from="-43990411#0" to="-215359980"/>
    <trip id="132" depart="2640.00" from="43990411#0" to="215359980"/>
    <trip id="133" depart="2660.00" from="11177800" to="75459746"/>
    <trip id="134" depart="2680.00" from="157848753" to="-104081861#0"/>
    <trip id="135" depart="2700.00" from="215671214" to="-43990411#1"/>
    <trip id="136" depart="2720.00" from="157848753" to="53848099"/>
    <trip id="137" depart="2740.00" from="-157848752" to="-196818520"/>
    <trip id="138" depart="2760.00" from="-156772091#1" to="156772091#0"/>
    <trip id="139" depart="2780.00" from="-215486792#1" to="157848752"/>
    <trip id="140" depart="2800.00" from="215344910#0" to="-215671204"/>
    <trip id="141" depart="2820.00" from="156772091#0" to="-43990411#0"/>
    <trip id="142" depart="2840.00" from="-73541769#1" to="51064594"/>
    <trip id="143" depart="2860.00" from="43990411#0" to="-157848753"/>
    <trip id="144" depart="2880.00" from="-44076815" to="-43990411#1"/>
    <trip id="145" depart="2900.00" from="-104081862#1" to="215486793"/>
    <trip id="146" depart="2920.00" from="156772091#0" to="-43990411#0"/>
    <trip id="147" depart="2940.00" from="215359980" to="156772091#0"/>
    <trip id="148" depart="2960.00" from="-47026378" to="-104081861#0"/>
    <trip id="149" depart="2980.00" from="-156772091#0" to="44076815"/>
    <trip id="150" depart="3000.00" from="53848099" to="127588520"/>
    <trip id="151" depart="3020.00" from="43990411#0" to="156772091#1"/>
    <trip id="152" depart="3040.00" from="-157848752" to="-215344910#0"/>
    <trip id="153" depart="3060.00" from="-215671204" to="44076815"/>
    <trip id="154" depart="3080.00" from="215671204" to="43990411#1"/>
    <trip id="155" depart="3100.00" from="47026378" to="-215671204"/>
    <trip id="156" depart="3120.00" from="-215359980" to="-196818520"/>
    <trip id="157" depart="3140.00" from="215671204" to="44076815"/>
    <trip id="158" depart="3160.00" from="-44076815" to="157848752"/>
    <trip id="159" depart="3180.00" from="-196818520" to="53848099"/>
    <trip id="160" depart="3200.00" from="43990411#1" to="75459746"/>
    <trip id="161" depart="3220.00" from="215671214" to="44076815"/>
    <trip id="162" depart="3240.00" from="-104081862#1" to="215486792#1"/>
    <trip id="163" depart="3260.00" from="-215671214" to="53848099"/>
    <trip id="164" depart="3280.00" from="215671214" to="43990411#1"/>
    <trip id="165" depart="3300.00" from="215671214" to="-43990411#0"/>
    <trip id="166" depart="3320.00" from="215671204" to="-196818520"/>
    <trip id="167" depart="3340.00" from="43990411#1" to="43990411#1"/>
    <trip id="168" depart="3360.00" from="-215344910#1" to="215671214"/>
    <trip id="169" depart="3380.00" from="-53848099" to="-47026378"/>
    <trip id="170" depart="3400.00" from="215671204" to="-215671214"/>
    <trip id="171" depart="3420.00" from="-104081862#1" to="-215486792#1"/>
    <trip id="172" depart="3440.00" from="-215671214" to="43990411#1"/>
    <trip id="173" depart="3460.00" from="75459746" to="-43990411#1"/>
    <trip id="174" depart="3480.00" from="156772091#0" to="-75459746"/>
    <trip id="175" depart="3500.00" from="80659133" to="127588520"/>
    <trip id="176" depart="3520.00" from="73541769#1" to="-196818520"/>
    <trip id="177" depart="3540.00" from="75459746" to="-215486792#1"/>
    <trip id="178" depart="3560.00" from="75459746" to="-43990411#0"/>
    <trip id="179" depart="3580.00" from="-156772091#1" to="104081862#1"/>
</routes>
